MODEL 1
REMARK VINA RESULT:      -6.6      0.000      0.000
REMARK  3 active torsions:
REMARK  status: ('A' for Active; 'I' for Inactive)
REMARK    1  A    between atoms: N_1  and  C_2 
REMARK    2  A    between atoms: C_2  and  C_3 
REMARK       I    between atoms: C_3  and  N_5 
REMARK    3  A    between atoms: N_5  and  C_6 
ROOT
HETATM    1  C   UNL     1       1.829  -4.874  -7.959  1.00  0.00     0.035 A 
HETATM    2  C   UNL     1       2.400  -4.517  -9.186  1.00  0.00     0.044 A 
HETATM    3  C   UNL     1       3.750  -4.757  -9.464  1.00  0.00     0.006 A 
HETATM    4  C   UNL     1       4.517  -5.374  -8.479  1.00  0.00     0.090 A 
HETATM    5  C   UNL     1       3.983  -5.718  -7.238  1.00  0.00     0.040 A 
HETATM    6  C   UNL     1       2.637  -5.452  -6.974  1.00  0.00     0.032 A 
HETATM    7  O   UNL     1       5.873  -5.680  -8.695  1.00  0.00    -0.275 OA
HETATM    8  C   UNL     1       6.489  -5.378  -9.899  1.00  0.00     0.288 A 
HETATM    9  O   UNL     1       7.662  -5.653 -10.123  1.00  0.00    -0.260 OA
HETATM   10  C   UNL     1       5.673  -4.693 -10.914  1.00  0.00     0.090 A 
HETATM   11  C   UNL     1       4.381  -4.384 -10.737  1.00  0.00    -0.043 A 
HETATM   12  C   UNL     1       3.584  -3.672 -11.793  1.00  0.00     0.049 C 
ENDROOT
BRANCH   1  13
HETATM   13  N   UNL     1       0.468  -4.659  -7.670  1.00  0.00    -0.326 N 
HETATM   14  C   UNL     1      -0.063  -3.631  -6.906  1.00  0.00     0.250 C 
HETATM   15  O   UNL     1       0.553  -2.679  -6.437  1.00  0.00    -0.271 OA
HETATM   16  H   UNL     1      -0.224  -5.276  -8.089  1.00  0.00     0.169 HD
BRANCH  14  17
HETATM   17  C   UNL     1      -1.580  -3.729  -6.740  1.00  0.00     0.369 C 
BRANCH  17  18
HETATM   18  N   UNL     1      -2.143  -2.463  -6.238  1.00  0.00     0.087 N 
HETATM   19  H   UNL     1      -2.830  -2.136  -6.919  1.00  0.00     0.313 HD
HETATM   20  H   UNL     1      -1.401  -1.759  -6.257  1.00  0.00     0.313 HD
ENDBRANCH  17  18
ENDBRANCH  14  17
ENDBRANCH   1  13
TORSDOF 3
ENDMDL
MODEL 2
REMARK VINA RESULT:      -6.3      8.892      9.996
REMARK  3 active torsions:
REMARK  status: ('A' for Active; 'I' for Inactive)
REMARK    1  A    between atoms: N_1  and  C_2 
REMARK    2  A    between atoms: C_2  and  C_3 
REMARK       I    between atoms: C_3  and  N_5 
REMARK    3  A    between atoms: N_5  and  C_6 
ROOT
HETATM    1  C   UNL     1      10.186  -2.768 -14.801  1.00  0.00     0.035 A 
HETATM    2  C   UNL     1      10.231  -3.133 -13.451  1.00  0.00     0.044 A 
HETATM    3  C   UNL     1      10.244  -4.475 -13.054  1.00  0.00     0.006 A 
HETATM    4  C   UNL     1      10.218  -5.447 -14.050  1.00  0.00     0.090 A 
HETATM    5  C   UNL     1      10.147  -5.114 -15.402  1.00  0.00     0.040 A 
HETATM    6  C   UNL     1      10.116  -3.769 -15.776  1.00  0.00     0.032 A 
HETATM    7  O   UNL     1      10.263  -6.817 -13.734  1.00  0.00    -0.275 OA
HETATM    8  C   UNL     1      10.337  -7.243 -12.417  1.00  0.00     0.288 A 
HETATM    9  O   UNL     1      10.400  -8.428 -12.113  1.00  0.00    -0.260 OA
HETATM   10  C   UNL     1      10.327  -6.202 -11.377  1.00  0.00     0.090 A 
HETATM   11  C   UNL     1      10.280  -4.891 -11.645  1.00  0.00    -0.043 A 
HETATM   12  C   UNL     1      10.258  -3.858 -10.554  1.00  0.00     0.049 C 
ENDROOT
BRANCH   1  13
HETATM   13  N   UNL     1      10.193  -1.423 -15.218  1.00  0.00    -0.326 N 
HETATM   14  C   UNL     1       9.136  -0.726 -15.781  1.00  0.00     0.250 C 
HETATM   15  O   UNL     1       7.986  -1.133 -15.918  1.00  0.00    -0.271 OA
HETATM   16  H   UNL     1      11.031  -0.866 -15.061  1.00  0.00     0.169 HD
BRANCH  14  17
HETATM   17  C   UNL     1       9.503   0.705 -16.178  1.00  0.00     0.369 C 
BRANCH  17  18
HETATM   18  N   UNL     1       9.416   1.616 -15.022  1.00  0.00     0.087 N 
HETATM   19  H   UNL     1       9.772   1.117 -14.205  1.00  0.00     0.313 HD
HETATM   20  H   UNL     1       8.426   1.775 -14.821  1.00  0.00     0.313 HD
ENDBRANCH  17  18
ENDBRANCH  14  17
ENDBRANCH   1  13
TORSDOF 3
ENDMDL
MODEL 3
REMARK VINA RESULT:      -6.3      7.942      9.624
REMARK  3 active torsions:
REMARK  status: ('A' for Active; 'I' for Inactive)
REMARK    1  A    between atoms: N_1  and  C_2 
REMARK    2  A    between atoms: C_2  and  C_3 
REMARK       I    between atoms: C_3  and  N_5 
REMARK    3  A    between atoms: N_5  and  C_6 
ROOT
HETATM    1  C   UNL     1       9.960  -4.168 -13.394  1.00  0.00     0.035 A 
HETATM    2  C   UNL     1       9.046  -3.946 -14.431  1.00  0.00     0.044 A 
HETATM    3  C   UNL     1       8.971  -2.715 -15.092  1.00  0.00     0.006 A 
HETATM    4  C   UNL     1       9.845  -1.708 -14.690  1.00  0.00     0.090 A 
HETATM    5  C   UNL     1      10.748  -1.890 -13.644  1.00  0.00     0.040 A 
HETATM    6  C   UNL     1      10.793  -3.121 -12.985  1.00  0.00     0.032 A 
HETATM    7  O   UNL     1       9.855  -0.454 -15.328  1.00  0.00    -0.275 OA
HETATM    8  C   UNL     1       8.995  -0.182 -16.380  1.00  0.00     0.288 A 
HETATM    9  O   UNL     1       8.997   0.893 -16.968  1.00  0.00    -0.260 OA
HETATM   10  C   UNL     1       8.054  -1.245 -16.766  1.00  0.00     0.090 A 
HETATM   11  C   UNL     1       8.017  -2.448 -16.176  1.00  0.00    -0.043 A 
HETATM   12  C   UNL     1       7.032  -3.504 -16.590  1.00  0.00     0.049 C 
ENDROOT
BRANCH   1  13
HETATM   13  N   UNL     1      10.062  -5.406 -12.733  1.00  0.00    -0.326 N 
HETATM   14  C   UNL     1       9.743  -5.666 -11.409  1.00  0.00     0.250 C 
HETATM   15  O   UNL     1       9.222  -4.885 -10.618  1.00  0.00    -0.271 OA
HETATM   16  H   UNL     1      10.353  -6.223 -13.266  1.00  0.00     0.169 HD
BRANCH  14  17
HETATM   17  C   UNL     1      10.033  -7.109 -10.994  1.00  0.00     0.369 C 
BRANCH  17  18
HETATM   18  N   UNL     1       8.983  -7.627 -10.098  1.00  0.00     0.087 N 
HETATM   19  H   UNL     1       9.440  -8.174  -9.367  1.00  0.00     0.313 HD
HETATM   20  H   UNL     1       8.427  -8.305 -10.624  1.00  0.00     0.313 HD
ENDBRANCH  17  18
ENDBRANCH  14  17
ENDBRANCH   1  13
TORSDOF 3
ENDMDL
MODEL 4
REMARK VINA RESULT:      -6.3      5.863      8.640
REMARK  3 active torsions:
REMARK  status: ('A' for Active; 'I' for Inactive)
REMARK    1  A    between atoms: N_1  and  C_2 
REMARK    2  A    between atoms: C_2  and  C_3 
REMARK       I    between atoms: C_3  and  N_5 
REMARK    3  A    between atoms: N_5  and  C_6 
ROOT
HETATM    1  C   UNL     1       8.470  -3.199 -14.179  1.00  0.00     0.035 A 
HETATM    2  C   UNL     1       7.216  -3.570 -13.680  1.00  0.00     0.044 A 
HETATM    3  C   UNL     1       7.032  -3.901 -12.333  1.00  0.00     0.006 A 
HETATM    4  C   UNL     1       8.140  -3.844 -11.492  1.00  0.00     0.090 A 
HETATM    5  C   UNL     1       9.407  -3.503 -11.966  1.00  0.00     0.040 A 
HETATM    6  C   UNL     1       9.572  -3.194 -13.318  1.00  0.00     0.032 A 
HETATM    7  O   UNL     1       8.030  -4.129 -10.119  1.00  0.00    -0.275 OA
HETATM    8  C   UNL     1       6.810  -4.473  -9.558  1.00  0.00     0.288 A 
HETATM    9  O   UNL     1       6.680  -4.705  -8.362  1.00  0.00    -0.260 OA
HETATM   10  C   UNL     1       5.658  -4.564 -10.469  1.00  0.00     0.090 A 
HETATM   11  C   UNL     1       5.732  -4.304 -11.781  1.00  0.00    -0.043 A 
HETATM   12  C   UNL     1       4.535  -4.421 -12.681  1.00  0.00     0.049 C 
ENDROOT
BRANCH   1  13
HETATM   13  N   UNL     1       8.669  -2.843 -15.527  1.00  0.00    -0.326 N 
HETATM   14  C   UNL     1       8.694  -1.560 -16.049  1.00  0.00     0.250 C 
HETATM   15  O   UNL     1       8.649  -0.512 -15.410  1.00  0.00    -0.271 OA
HETATM   16  H   UNL     1       8.863  -3.579 -16.203  1.00  0.00     0.169 HD
BRANCH  14  17
HETATM   17  C   UNL     1       8.870  -1.532 -17.568  1.00  0.00     0.369 C 
BRANCH  17  18
HETATM   18  N   UNL     1       7.933  -2.459 -18.229  1.00  0.00     0.087 N 
HETATM   19  H   UNL     1       7.192  -2.679 -17.562  1.00  0.00     0.313 HD
HETATM   20  H   UNL     1       8.421  -3.345 -18.379  1.00  0.00     0.313 HD
ENDBRANCH  17  18
ENDBRANCH  14  17
ENDBRANCH   1  13
TORSDOF 3
ENDMDL
MODEL 5
REMARK VINA RESULT:      -6.2      2.662      2.769
REMARK  3 active torsions:
REMARK  status: ('A' for Active; 'I' for Inactive)
REMARK    1  A    between atoms: N_1  and  C_2 
REMARK    2  A    between atoms: C_2  and  C_3 
REMARK       I    between atoms: C_3  and  N_5 
REMARK    3  A    between atoms: N_5  and  C_6 
ROOT
HETATM    1  C   UNL     1       0.833  -4.842  -7.593  1.00  0.00     0.035 A 
HETATM    2  C   UNL     1       1.001  -5.867  -8.532  1.00  0.00     0.044 A 
HETATM    3  C   UNL     1       2.165  -6.642  -8.573  1.00  0.00     0.006 A 
HETATM    4  C   UNL     1       3.161  -6.366  -7.639  1.00  0.00     0.090 A 
HETATM    5  C   UNL     1       3.035  -5.335  -6.710  1.00  0.00     0.040 A 
HETATM    6  C   UNL     1       1.871  -4.562  -6.698  1.00  0.00     0.032 A 
HETATM    7  O   UNL     1       4.347  -7.122  -7.594  1.00  0.00    -0.275 OA
HETATM    8  C   UNL     1       4.560  -8.169  -8.477  1.00  0.00     0.288 A 
HETATM    9  O   UNL     1       5.572  -8.858  -8.445  1.00  0.00    -0.260 OA
HETATM   10  C   UNL     1       3.513  -8.421  -9.479  1.00  0.00     0.090 A 
HETATM   11  C   UNL     1       2.375  -7.717  -9.551  1.00  0.00    -0.043 A 
HETATM   12  C   UNL     1       1.335  -7.996 -10.599  1.00  0.00     0.049 C 
ENDROOT
BRANCH   1  13
HETATM   13  N   UNL     1      -0.340  -4.067  -7.526  1.00  0.00    -0.326 N 
HETATM   14  C   UNL     1      -1.300  -4.105  -6.527  1.00  0.00     0.250 C 
HETATM   15  O   UNL     1      -1.239  -4.747  -5.482  1.00  0.00    -0.271 OA
HETATM   16  H   UNL     1      -0.506  -3.366  -8.245  1.00  0.00     0.169 HD
BRANCH  14  17
HETATM   17  C   UNL     1      -2.483  -3.175  -6.795  1.00  0.00     0.369 C 
BRANCH  17  18
HETATM   18  N   UNL     1      -2.208  -1.810  -6.311  1.00  0.00     0.087 N 
HETATM   19  H   UNL     1      -1.195  -1.708  -6.230  1.00  0.00     0.313 HD
HETATM   20  H   UNL     1      -2.555  -1.740  -5.351  1.00  0.00     0.313 HD
ENDBRANCH  17  18
ENDBRANCH  14  17
ENDBRANCH   1  13
TORSDOF 3
ENDMDL
MODEL 6
REMARK VINA RESULT:      -6.1      5.497      6.721
REMARK  3 active torsions:
REMARK  status: ('A' for Active; 'I' for Inactive)
REMARK    1  A    between atoms: N_1  and  C_2 
REMARK    2  A    between atoms: C_2  and  C_3 
REMARK       I    between atoms: C_3  and  N_5 
REMARK    3  A    between atoms: N_5  and  C_6 
ROOT
HETATM    1  C   UNL     1       1.582  -6.031 -11.790  1.00  0.00     0.035 A 
HETATM    2  C   UNL     1       1.080  -7.332 -11.664  1.00  0.00     0.044 A 
HETATM    3  C   UNL     1       0.785  -8.116 -12.784  1.00  0.00     0.006 A 
HETATM    4  C   UNL     1       1.013  -7.563 -14.042  1.00  0.00     0.090 A 
HETATM    5  C   UNL     1       1.486  -6.262 -14.199  1.00  0.00     0.040 A 
HETATM    6  C   UNL     1       1.757  -5.490 -13.067  1.00  0.00     0.032 A 
HETATM    7  O   UNL     1       0.773  -8.300 -15.216  1.00  0.00    -0.275 OA
HETATM    8  C   UNL     1       0.304  -9.603 -15.158  1.00  0.00     0.288 A 
HETATM    9  O   UNL     1       0.108 -10.275 -16.163  1.00  0.00    -0.260 OA
HETATM   10  C   UNL     1       0.035 -10.156 -13.822  1.00  0.00     0.090 A 
HETATM   11  C   UNL     1       0.248  -9.480 -12.686  1.00  0.00    -0.043 A 
HETATM   12  C   UNL     1      -0.052 -10.075 -11.339  1.00  0.00     0.049 C 
ENDROOT
BRANCH   1  13
HETATM   13  N   UNL     1       1.903  -5.237 -10.673  1.00  0.00    -0.326 N 
HETATM   14  C   UNL     1       3.042  -5.333  -9.889  1.00  0.00     0.250 C 
HETATM   15  O   UNL     1       4.010  -6.059 -10.097  1.00  0.00    -0.271 OA
HETATM   16  H   UNL     1       1.277  -4.476 -10.417  1.00  0.00     0.169 HD
BRANCH  14  17
HETATM   17  C   UNL     1       3.046  -4.355  -8.713  1.00  0.00     0.369 C 
BRANCH  17  18
HETATM   18  N   UNL     1       1.861  -3.479  -8.746  1.00  0.00     0.087 N 
HETATM   19  H   UNL     1       1.407  -3.536  -7.833  1.00  0.00     0.313 HD
HETATM   20  H   UNL     1       1.187  -3.885  -9.399  1.00  0.00     0.313 HD
ENDBRANCH  17  18
ENDBRANCH  14  17
ENDBRANCH   1  13
TORSDOF 3
ENDMDL
MODEL 7
REMARK VINA RESULT:      -6.1      4.554      6.689
REMARK  3 active torsions:
REMARK  status: ('A' for Active; 'I' for Inactive)
REMARK    1  A    between atoms: N_1  and  C_2 
REMARK    2  A    between atoms: C_2  and  C_3 
REMARK       I    between atoms: C_3  and  N_5 
REMARK    3  A    between atoms: N_5  and  C_6 
ROOT
HETATM    1  C   UNL     1       7.194  -4.719 -10.683  1.00  0.00     0.035 A 
HETATM    2  C   UNL     1       8.508  -4.275 -10.876  1.00  0.00     0.044 A 
HETATM    3  C   UNL     1       8.864  -3.499 -11.984  1.00  0.00     0.006 A 
HETATM    4  C   UNL     1       7.864  -3.172 -12.897  1.00  0.00     0.090 A 
HETATM    5  C   UNL     1       6.553  -3.622 -12.745  1.00  0.00     0.040 A 
HETATM    6  C   UNL     1       6.223  -4.410 -11.641  1.00  0.00     0.032 A 
HETATM    7  O   UNL     1       8.135  -2.367 -14.018  1.00  0.00    -0.275 OA
HETATM    8  C   UNL     1       9.409  -1.872 -14.249  1.00  0.00     0.288 A 
HETATM    9  O   UNL     1       9.669  -1.151 -15.205  1.00  0.00    -0.260 OA
HETATM   10  C   UNL     1      10.460  -2.259 -13.295  1.00  0.00     0.090 A 
HETATM   11  C   UNL     1      10.235  -3.026 -12.220  1.00  0.00    -0.043 A 
HETATM   12  C   UNL     1      11.337  -3.411 -11.275  1.00  0.00     0.049 C 
ENDROOT
BRANCH   1  13
HETATM   13  N   UNL     1       6.815  -5.483  -9.563  1.00  0.00    -0.326 N 
HETATM   14  C   UNL     1       6.028  -5.062  -8.502  1.00  0.00     0.250 C 
HETATM   15  O   UNL     1       5.445  -3.985  -8.410  1.00  0.00    -0.271 OA
HETATM   16  H   UNL     1       7.093  -6.461  -9.521  1.00  0.00     0.169 HD
BRANCH  14  17
HETATM   17  C   UNL     1       5.861  -6.128  -7.418  1.00  0.00     0.369 C 
BRANCH  17  18
HETATM   18  N   UNL     1       6.834  -5.935  -6.328  1.00  0.00     0.087 N 
HETATM   19  H   UNL     1       6.341  -6.070  -5.444  1.00  0.00     0.313 HD
HETATM   20  H   UNL     1       7.112  -4.950  -6.325  1.00  0.00     0.313 HD
ENDBRANCH  17  18
ENDBRANCH  14  17
ENDBRANCH   1  13
TORSDOF 3
ENDMDL
MODEL 8
REMARK VINA RESULT:      -6.0      4.435      6.453
REMARK  3 active torsions:
REMARK  status: ('A' for Active; 'I' for Inactive)
REMARK    1  A    between atoms: N_1  and  C_2 
REMARK    2  A    between atoms: C_2  and  C_3 
REMARK       I    between atoms: C_3  and  N_5 
REMARK    3  A    between atoms: N_5  and  C_6 
ROOT
HETATM    1  C   UNL     1       2.532  -6.643 -12.407  1.00  0.00     0.035 A 
HETATM    2  C   UNL     1       2.224  -6.713 -11.043  1.00  0.00     0.044 A 
HETATM    3  C   UNL     1       2.287  -5.584 -10.218  1.00  0.00     0.006 A 
HETATM    4  C   UNL     1       2.661  -4.375 -10.799  1.00  0.00     0.090 A 
HETATM    5  C   UNL     1       2.999  -4.280 -12.148  1.00  0.00     0.040 A 
HETATM    6  C   UNL     1       2.947  -5.422 -12.950  1.00  0.00     0.032 A 
HETATM    7  O   UNL     1       2.715  -3.189 -10.044  1.00  0.00    -0.275 OA
HETATM    8  C   UNL     1       2.394  -3.187  -8.696  1.00  0.00     0.288 A 
HETATM    9  O   UNL     1       2.411  -2.166  -8.019  1.00  0.00    -0.260 OA
HETATM   10  C   UNL     1       2.037  -4.480  -8.092  1.00  0.00     0.090 A 
HETATM   11  C   UNL     1       1.981  -5.627  -8.782  1.00  0.00    -0.043 A 
HETATM   12  C   UNL     1       1.624  -6.931  -8.127  1.00  0.00     0.049 C 
ENDROOT
BRANCH   1  13
HETATM   13  N   UNL     1       2.454  -7.764 -13.255  1.00  0.00    -0.326 N 
HETATM   14  C   UNL     1       1.351  -8.171 -13.989  1.00  0.00     0.250 C 
HETATM   15  O   UNL     1       0.288  -7.567 -14.103  1.00  0.00    -0.271 OA
HETATM   16  H   UNL     1       3.290  -8.326 -13.400  1.00  0.00     0.169 HD
BRANCH  14  17
HETATM   17  C   UNL     1       1.589  -9.471 -14.758  1.00  0.00     0.369 C 
BRANCH  17  18
HETATM   18  N   UNL     1       0.375  -9.890 -15.484  1.00  0.00     0.087 N 
HETATM   19  H   UNL     1      -0.225 -10.388 -14.824  1.00  0.00     0.313 HD
HETATM   20  H   UNL     1       0.648 -10.595 -16.172  1.00  0.00     0.313 HD
ENDBRANCH  17  18
ENDBRANCH  14  17
ENDBRANCH   1  13
TORSDOF 3
ENDMDL
MODEL 9
REMARK VINA RESULT:      -6.0      8.819      9.459
REMARK  3 active torsions:
REMARK  status: ('A' for Active; 'I' for Inactive)
REMARK    1  A    between atoms: N_1  and  C_2 
REMARK    2  A    between atoms: C_2  and  C_3 
REMARK       I    between atoms: C_3  and  N_5 
REMARK    3  A    between atoms: N_5  and  C_6 
ROOT
HETATM    1  C   UNL     1      10.480  -2.796 -13.204  1.00  0.00     0.035 A 
HETATM    2  C   UNL     1      10.212  -4.063 -13.736  1.00  0.00     0.044 A 
HETATM    3  C   UNL     1      10.155  -5.202 -12.925  1.00  0.00     0.006 A 
HETATM    4  C   UNL     1      10.368  -5.037 -11.558  1.00  0.00     0.090 A 
HETATM    5  C   UNL     1      10.663  -3.793 -11.004  1.00  0.00     0.040 A 
HETATM    6  C   UNL     1      10.733  -2.672 -11.834  1.00  0.00     0.032 A 
HETATM    7  O   UNL     1      10.294  -6.127 -10.673  1.00  0.00    -0.275 OA
HETATM    8  C   UNL     1      10.004  -7.402 -11.133  1.00  0.00     0.288 A 
HETATM    9  O   UNL     1       9.911  -8.365 -10.382  1.00  0.00    -0.260 OA
HETATM   10  C   UNL     1       9.818  -7.562 -12.584  1.00  0.00     0.090 A 
HETATM   11  C   UNL     1       9.887  -6.545 -13.453  1.00  0.00    -0.043 A 
HETATM   12  C   UNL     1       9.704  -6.751 -14.931  1.00  0.00     0.049 C 
ENDROOT
BRANCH   1  13
HETATM   13  N   UNL     1      10.520  -1.637 -14.003  1.00  0.00    -0.326 N 
HETATM   14  C   UNL     1       9.511  -1.165 -14.828  1.00  0.00     0.250 C 
HETATM   15  O   UNL     1       8.376  -1.622 -14.925  1.00  0.00    -0.271 OA
HETATM   16  H   UNL     1      11.342  -1.039 -13.956  1.00  0.00     0.169 HD
BRANCH  14  17
HETATM   17  C   UNL     1       9.909   0.090 -15.605  1.00  0.00     0.369 C 
BRANCH  17  18
HETATM   18  N   UNL     1       9.482   1.311 -14.899  1.00  0.00     0.087 N 
HETATM   19  H   UNL     1       9.515   2.084 -15.566  1.00  0.00     0.313 HD
HETATM   20  H   UNL     1      10.195   1.537 -14.201  1.00  0.00     0.313 HD
ENDBRANCH  17  18
ENDBRANCH  14  17
ENDBRANCH   1  13
TORSDOF 3
ENDMDL
