MODEL 1
REMARK VINA RESULT:      -7.6      0.000      0.000
REMARK  16 active torsions:
REMARK  status: ('A' for Active; 'I' for Inactive)
REMARK    1  A    between atoms: CB_2  and  OG1_3 
REMARK    2  A    between atoms: CB_2  and  CA_4 
REMARK    3  A    between atoms: CA_4  and  N_5 
REMARK    4  A    between atoms: CA_4  and  C_6 
REMARK       I    between atoms: C_6  and  N_12 
REMARK    5  A    between atoms: N_12  and  CA_13 
REMARK    6  A    between atoms: CA_13  and  CB_14 
REMARK    7  A    between atoms: CA_13  and  C_17 
REMARK    8  A    between atoms: CB_14  and  OG1_16 
REMARK       I    between atoms: C_17  and  N_21 
REMARK    9  A    between atoms: N_21  and  CA_22 
REMARK   10  A    between atoms: CA_22  and  CB_23 
REMARK   11  A    between atoms: CA_22  and  C_27 
REMARK   12  A    between atoms: CB_23  and  CG_24 
REMARK       I    between atoms: C_27  and  N_30 
REMARK   13  A    between atoms: N_30  and  CA_31 
REMARK   14  A    between atoms: CA_31  and  CB_32 
REMARK   15  A    between atoms: CA_31  and  C_36 
REMARK   16  A    between atoms: CB_32  and  CG_33 
ROOT
ATOM      1  C   THR A   2       2.853  -4.000  -9.215  1.00  0.00     0.243 C 
ATOM      2  O   THR A   2       2.464  -2.894  -9.584  1.00  0.00    -0.271 OA
ATOM      3  N   ASP A   3       3.559  -4.852 -10.043  1.00  0.00    -0.345 N 
ATOM      4  H   ASP A   3       4.005  -5.638  -9.652  1.00  0.00     0.163 HD
ENDROOT
BRANCH   1   5
ATOM      5  CA  THR A   2       2.502  -4.604  -7.840  1.00  0.00     0.205 C 
BRANCH   5   6
ATOM      6  N   THR A   2       1.048  -4.661  -7.690  1.00  0.00    -0.344 N 
ATOM      7  C   THR A   1       0.337  -3.731  -6.963  1.00  0.00     0.251 C 
ATOM      8  O   THR A   1       0.837  -2.710  -6.504  1.00  0.00    -0.271 OA
ATOM      9  H   THR A   2       0.557  -5.395  -8.126  1.00  0.00     0.163 HD
BRANCH   7  10
ATOM     10  CA  THR A   1      -1.154  -4.103  -6.831  1.00  0.00     0.302 C 
BRANCH  10  11
ATOM     11  CB  THR A   1      -2.081  -2.926  -7.210  1.00  0.00     0.153 C 
ATOM     12  CG2 THR A   1      -3.559  -3.286  -7.090  1.00  0.00     0.042 C 
BRANCH  11  13
ATOM     13  OG1 THR A   1      -1.813  -1.819  -6.326  1.00  0.00    -0.393 OA
ATOM     14  H   THR A   1      -2.168  -2.016  -5.445  1.00  0.00     0.210 HD
ENDBRANCH  11  13
ENDBRANCH  10  11
BRANCH  10  15
ATOM     15  N   THR A   1      -1.409  -4.564  -5.428  1.00  0.00    -0.064 N 
ATOM     16  H   THR A   1      -0.851  -5.396  -5.236  1.00  0.00     0.275 HD
ATOM     17  H   THR A   1      -2.399  -4.785  -5.318  1.00  0.00     0.275 HD
ATOM     18  H   THR A   1      -1.151  -3.823  -4.775  1.00  0.00     0.275 HD
ENDBRANCH  10  15
ENDBRANCH   7  10
ENDBRANCH   5   6
BRANCH   5  19
ATOM     19  CB  THR A   2       3.178  -5.984  -7.677  1.00  0.00     0.146 C 
ATOM     20  CG2 THR A   2       3.736  -6.215  -6.277  1.00  0.00     0.042 C 
BRANCH  19  21
ATOM     21  OG1 THR A   2       2.242  -7.041  -7.946  1.00  0.00    -0.393 OA
ATOM     22  H   THR A   2       2.419  -7.788  -7.352  1.00  0.00     0.210 HD
ENDBRANCH  19  21
ENDBRANCH   5  19
ENDBRANCH   1   5
BRANCH   3  23
ATOM     23  CA  ASP A   3       3.662  -4.620 -11.478  1.00  0.00     0.186 C 
BRANCH  23  24
ATOM     24  CB  ASP A   3       5.028  -4.056 -11.863  1.00  0.00     0.147 C 
BRANCH  24  25
ATOM     25  CG  ASP A   3       6.132  -4.534 -10.961  1.00  0.00     0.175 C 
ATOM     26  OD1 ASP A   3       6.405  -4.121  -9.847  1.00  0.00    -0.648 OA
ATOM     27  OD2 ASP A   3       6.883  -5.487 -11.546  1.00  0.00    -0.648 OA
ENDBRANCH  24  25
ENDBRANCH  23  24
BRANCH  23  28
ATOM     28  C   ASP A   3       3.346  -5.935 -12.227  1.00  0.00     0.241 C 
ATOM     29  O   ASP A   3       4.070  -6.390 -13.108  1.00  0.00    -0.271 OA
ATOM     30  N   LEU A   4       2.179  -6.560 -11.835  1.00  0.00    -0.345 N 
ATOM     31  H   LEU A   4       1.694  -6.234 -11.042  1.00  0.00     0.163 HD
BRANCH  30  32
ATOM     32  CA  LEU A   4       1.651  -7.707 -12.591  1.00  0.00     0.185 C 
BRANCH  32  33
ATOM     33  CB  LEU A   4       0.743  -8.533 -11.667  1.00  0.00     0.040 C 
BRANCH  33  34
ATOM     34  CG  LEU A   4       0.599 -10.043 -11.950  1.00  0.00    -0.020 C 
ATOM     35  CD1 LEU A   4      -0.562 -10.377 -12.889  1.00  0.00     0.009 C 
ATOM     36  CD2 LEU A   4       0.532 -10.887 -10.676  1.00  0.00     0.009 C 
ENDBRANCH  33  34
ENDBRANCH  32  33
BRANCH  32  37
ATOM     37  C   LEU A   4       0.889  -7.108 -13.768  1.00  0.00     0.196 C 
ATOM     38  O   LEU A   4       0.868  -7.556 -14.906  1.00  0.00    -0.646 OA
ATOM     39  OXT LEU A   4       0.197  -5.997 -13.457  1.00  0.00    -0.646 OA
ENDBRANCH  32  37
ENDBRANCH  30  32
ENDBRANCH  23  28
ENDBRANCH   3  23
TORSDOF 16
ENDMDL
MODEL 2
REMARK VINA RESULT:      -7.5      1.648      2.219
REMARK  16 active torsions:
REMARK  status: ('A' for Active; 'I' for Inactive)
REMARK    1  A    between atoms: CB_2  and  OG1_3 
REMARK    2  A    between atoms: CB_2  and  CA_4 
REMARK    3  A    between atoms: CA_4  and  N_5 
REMARK    4  A    between atoms: CA_4  and  C_6 
REMARK       I    between atoms: C_6  and  N_12 
REMARK    5  A    between atoms: N_12  and  CA_13 
REMARK    6  A    between atoms: CA_13  and  CB_14 
REMARK    7  A    between atoms: CA_13  and  C_17 
REMARK    8  A    between atoms: CB_14  and  OG1_16 
REMARK       I    between atoms: C_17  and  N_21 
REMARK    9  A    between atoms: N_21  and  CA_22 
REMARK   10  A    between atoms: CA_22  and  CB_23 
REMARK   11  A    between atoms: CA_22  and  C_27 
REMARK   12  A    between atoms: CB_23  and  CG_24 
REMARK       I    between atoms: C_27  and  N_30 
REMARK   13  A    between atoms: N_30  and  CA_31 
REMARK   14  A    between atoms: CA_31  and  CB_32 
REMARK   15  A    between atoms: CA_31  and  C_36 
REMARK   16  A    between atoms: CB_32  and  CG_33 
ROOT
ATOM      1  C   THR A   2       2.559  -4.172  -9.627  1.00  0.00     0.243 C 
ATOM      2  O   THR A   2       2.598  -2.989  -9.959  1.00  0.00    -0.271 OA
ATOM      3  N   ASP A   3       2.634  -5.202 -10.544  1.00  0.00    -0.345 N 
ATOM      4  H   ASP A   3       2.784  -6.120 -10.221  1.00  0.00     0.163 HD
ENDROOT
BRANCH   1   5
ATOM      5  CA  THR A   2       2.308  -4.635  -8.178  1.00  0.00     0.205 C 
BRANCH   5   6
ATOM      6  N   THR A   2       0.869  -4.648  -7.912  1.00  0.00    -0.344 N 
ATOM      7  C   THR A   1       0.265  -3.771  -7.038  1.00  0.00     0.251 C 
ATOM      8  O   THR A   1       0.850  -2.826  -6.520  1.00  0.00    -0.271 OA
ATOM      9  H   THR A   2       0.308  -5.310  -8.379  1.00  0.00     0.163 HD
BRANCH   7  10
ATOM     10  CA  THR A   1      -1.227  -4.093  -6.819  1.00  0.00     0.302 C 
BRANCH  10  11
ATOM     11  CB  THR A   1      -2.137  -2.898  -7.184  1.00  0.00     0.153 C 
ATOM     12  CG2 THR A   1      -3.620  -3.226  -7.029  1.00  0.00     0.042 C 
BRANCH  11  13
ATOM     13  OG1 THR A   1      -1.826  -1.793  -6.312  1.00  0.00    -0.393 OA
ATOM     14  H   THR A   1      -0.922  -1.489  -6.486  1.00  0.00     0.210 HD
ENDBRANCH  11  13
ENDBRANCH  10  11
BRANCH  10  15
ATOM     15  N   THR A   1      -1.424  -4.508  -5.392  1.00  0.00    -0.064 N 
ATOM     16  H   THR A   1      -2.193  -5.176  -5.335  1.00  0.00     0.275 HD
ATOM     17  H   THR A   1      -1.642  -3.687  -4.827  1.00  0.00     0.275 HD
ATOM     18  H   THR A   1      -0.569  -4.943  -5.045  1.00  0.00     0.275 HD
ENDBRANCH  10  15
ENDBRANCH   7  10
ENDBRANCH   5   6
BRANCH   5  19
ATOM     19  CB  THR A   2       2.975  -6.007  -7.935  1.00  0.00     0.146 C 
ATOM     20  CG2 THR A   2       3.637  -6.116  -6.565  1.00  0.00     0.042 C 
BRANCH  19  21
ATOM     21  OG1 THR A   2       2.008  -7.066  -8.029  1.00  0.00    -0.393 OA
ATOM     22  H   THR A   2       1.330  -6.827  -8.681  1.00  0.00     0.210 HD
ENDBRANCH  19  21
ENDBRANCH   5  19
ENDBRANCH   1   5
BRANCH   3  23
ATOM     23  CA  ASP A   3       2.498  -4.969 -11.977  1.00  0.00     0.186 C 
BRANCH  23  24
ATOM     24  CB  ASP A   3       3.857  -4.852 -12.663  1.00  0.00     0.147 C 
BRANCH  24  25
ATOM     25  CG  ASP A   3       4.992  -5.318 -11.793  1.00  0.00     0.175 C 
ATOM     26  OD1 ASP A   3       5.787  -4.623 -11.184  1.00  0.00    -0.648 OA
ATOM     27  OD2 ASP A   3       5.100  -6.660 -11.783  1.00  0.00    -0.648 OA
ENDBRANCH  24  25
ENDBRANCH  23  24
BRANCH  23  28
ATOM     28  C   ASP A   3       1.632  -6.093 -12.592  1.00  0.00     0.241 C 
ATOM     29  O   ASP A   3       0.581  -5.873 -13.187  1.00  0.00    -0.271 OA
ATOM     30  N   LEU A   4       2.127  -7.369 -12.414  1.00  0.00    -0.345 N 
ATOM     31  H   LEU A   4       3.031  -7.495 -12.046  1.00  0.00     0.163 HD
BRANCH  30  32
ATOM     32  CA  LEU A   4       1.316  -8.545 -12.770  1.00  0.00     0.185 C 
BRANCH  32  33
ATOM     33  CB  LEU A   4       2.215  -9.571 -13.475  1.00  0.00     0.040 C 
BRANCH  33  34
ATOM     34  CG  LEU A   4       1.950  -9.866 -14.967  1.00  0.00    -0.020 C 
ATOM     35  CD1 LEU A   4       3.229 -10.047 -15.786  1.00  0.00     0.009 C 
ATOM     36  CD2 LEU A   4       1.019  -8.846 -15.624  1.00  0.00     0.009 C 
ENDBRANCH  33  34
ENDBRANCH  32  33
BRANCH  32  37
ATOM     37  C   LEU A   4       0.758  -9.072 -11.452  1.00  0.00     0.196 C 
ATOM     38  O   LEU A   4       1.284  -8.951 -10.355  1.00  0.00    -0.646 OA
ATOM     39  OXT LEU A   4      -0.420  -9.710 -11.579  1.00  0.00    -0.646 OA
ENDBRANCH  32  37
ENDBRANCH  30  32
ENDBRANCH  23  28
ENDBRANCH   3  23
TORSDOF 16
ENDMDL
MODEL 3
REMARK VINA RESULT:      -7.1      5.083      9.277
REMARK  16 active torsions:
REMARK  status: ('A' for Active; 'I' for Inactive)
REMARK    1  A    between atoms: CB_2  and  OG1_3 
REMARK    2  A    between atoms: CB_2  and  CA_4 
REMARK    3  A    between atoms: CA_4  and  N_5 
REMARK    4  A    between atoms: CA_4  and  C_6 
REMARK       I    between atoms: C_6  and  N_12 
REMARK    5  A    between atoms: N_12  and  CA_13 
REMARK    6  A    between atoms: CA_13  and  CB_14 
REMARK    7  A    between atoms: CA_13  and  C_17 
REMARK    8  A    between atoms: CB_14  and  OG1_16 
REMARK       I    between atoms: C_17  and  N_21 
REMARK    9  A    between atoms: N_21  and  CA_22 
REMARK   10  A    between atoms: CA_22  and  CB_23 
REMARK   11  A    between atoms: CA_22  and  C_27 
REMARK   12  A    between atoms: CB_23  and  CG_24 
REMARK       I    between atoms: C_27  and  N_30 
REMARK   13  A    between atoms: N_30  and  CA_31 
REMARK   14  A    between atoms: CA_31  and  CB_32 
REMARK   15  A    between atoms: CA_31  and  C_36 
REMARK   16  A    between atoms: CB_32  and  CG_33 
ROOT
ATOM      1  C   THR A   2       8.672  -5.543 -14.781  1.00  0.00     0.243 C 
ATOM      2  O   THR A   2       8.274  -6.647 -14.416  1.00  0.00    -0.271 OA
ATOM      3  N   ASP A   3       8.703  -4.450 -13.937  1.00  0.00    -0.345 N 
ATOM      4  H   ASP A   3       9.197  -3.645 -14.215  1.00  0.00     0.163 HD
ENDROOT
BRANCH   1   5
ATOM      5  CA  THR A   2       9.069  -5.227 -16.237  1.00  0.00     0.205 C 
BRANCH   5   6
ATOM      6  N   THR A   2       9.025  -3.780 -16.451  1.00  0.00    -0.344 N 
ATOM      7  C   THR A   1       8.190  -3.188 -17.374  1.00  0.00     0.251 C 
ATOM      8  O   THR A   1       7.323  -3.800 -17.986  1.00  0.00    -0.271 OA
ATOM      9  H   THR A   2       9.617  -3.205 -15.913  1.00  0.00     0.163 HD
BRANCH   7  10
ATOM     10  CA  THR A   1       8.448  -1.674 -17.514  1.00  0.00     0.302 C 
BRANCH  10  11
ATOM     11  CB  THR A   1       9.127  -1.083 -16.258  1.00  0.00     0.153 C 
ATOM     12  CG2 THR A   1       9.260   0.436 -16.327  1.00  0.00     0.042 C 
BRANCH  11  13
ATOM     13  OG1 THR A   1       8.333  -1.413 -15.101  1.00  0.00    -0.393 OA
ATOM     14  H   THR A   1       7.790  -0.649 -14.852  1.00  0.00     0.210 HD
ENDBRANCH  11  13
ENDBRANCH  10  11
BRANCH  10  15
ATOM     15  N   THR A   1       7.145  -0.991 -17.798  1.00  0.00    -0.064 N 
ATOM     16  H   THR A   1       6.523  -1.634 -18.289  1.00  0.00     0.275 HD
ATOM     17  H   THR A   1       7.312  -0.169 -18.379  1.00  0.00     0.275 HD
ATOM     18  H   THR A   1       6.713  -0.705 -16.919  1.00  0.00     0.275 HD
ENDBRANCH  10  15
ENDBRANCH   7  10
ENDBRANCH   5   6
BRANCH   5  19
ATOM     19  CB  THR A   2      10.451  -5.840 -16.557  1.00  0.00     0.146 C 
ATOM     20  CG2 THR A   2      11.608  -4.888 -16.271  1.00  0.00     0.042 C 
BRANCH  19  21
ATOM     21  OG1 THR A   2      10.671  -7.027 -15.779  1.00  0.00    -0.393 OA
ATOM     22  H   THR A   2      11.548  -6.986 -15.367  1.00  0.00     0.210 HD
ENDBRANCH  19  21
ENDBRANCH   5  19
ENDBRANCH   1   5
BRANCH   3  23
ATOM     23  CA  ASP A   3       8.026  -4.454 -12.646  1.00  0.00     0.186 C 
BRANCH  23  24
ATOM     24  CB  ASP A   3       8.763  -3.599 -11.618  1.00  0.00     0.147 C 
BRANCH  24  25
ATOM     25  CG  ASP A   3       9.968  -2.906 -12.191  1.00  0.00     0.175 C 
ATOM     26  OD1 ASP A   3      11.109  -3.333 -12.243  1.00  0.00    -0.648 OA
ATOM     27  OD2 ASP A   3       9.676  -1.666 -12.626  1.00  0.00    -0.648 OA
ENDBRANCH  24  25
ENDBRANCH  23  24
BRANCH  23  28
ATOM     28  C   ASP A   3       6.562  -3.994 -12.842  1.00  0.00     0.241 C 
ATOM     29  O   ASP A   3       6.267  -2.893 -13.298  1.00  0.00    -0.271 OA
ATOM     30  N   LEU A   4       5.608  -4.913 -12.456  1.00  0.00    -0.345 N 
ATOM     31  H   LEU A   4       5.882  -5.828 -12.216  1.00  0.00     0.163 HD
BRANCH  30  32
ATOM     32  CA  LEU A   4       4.186  -4.540 -12.399  1.00  0.00     0.185 C 
BRANCH  32  33
ATOM     33  CB  LEU A   4       3.336  -5.781 -12.708  1.00  0.00     0.040 C 
BRANCH  33  34
ATOM     34  CG  LEU A   4       1.867  -5.793 -12.236  1.00  0.00    -0.020 C 
ATOM     35  CD1 LEU A   4       1.599  -6.791 -11.109  1.00  0.00     0.009 C 
ATOM     36  CD2 LEU A   4       0.870  -5.981 -13.381  1.00  0.00     0.009 C 
ENDBRANCH  33  34
ENDBRANCH  32  33
BRANCH  32  37
ATOM     37  C   LEU A   4       3.955  -4.017 -10.985  1.00  0.00     0.196 C 
ATOM     38  O   LEU A   4       4.515  -4.420  -9.975  1.00  0.00    -0.646 OA
ATOM     39  OXT LEU A   4       3.049  -3.025 -10.915  1.00  0.00    -0.646 OA
ENDBRANCH  32  37
ENDBRANCH  30  32
ENDBRANCH  23  28
ENDBRANCH   3  23
TORSDOF 16
ENDMDL
MODEL 4
REMARK VINA RESULT:      -7.1      4.215      7.412
REMARK  16 active torsions:
REMARK  status: ('A' for Active; 'I' for Inactive)
REMARK    1  A    between atoms: CB_2  and  OG1_3 
REMARK    2  A    between atoms: CB_2  and  CA_4 
REMARK    3  A    between atoms: CA_4  and  N_5 
REMARK    4  A    between atoms: CA_4  and  C_6 
REMARK       I    between atoms: C_6  and  N_12 
REMARK    5  A    between atoms: N_12  and  CA_13 
REMARK    6  A    between atoms: CA_13  and  CB_14 
REMARK    7  A    between atoms: CA_13  and  C_17 
REMARK    8  A    between atoms: CB_14  and  OG1_16 
REMARK       I    between atoms: C_17  and  N_21 
REMARK    9  A    between atoms: N_21  and  CA_22 
REMARK   10  A    between atoms: CA_22  and  CB_23 
REMARK   11  A    between atoms: CA_22  and  C_27 
REMARK   12  A    between atoms: CB_23  and  CG_24 
REMARK       I    between atoms: C_27  and  N_30 
REMARK   13  A    between atoms: N_30  and  CA_31 
REMARK   14  A    between atoms: CA_31  and  CB_32 
REMARK   15  A    between atoms: CA_31  and  C_36 
REMARK   16  A    between atoms: CB_32  and  CG_33 
ROOT
ATOM      1  C   THR A   2       7.167  -4.434 -10.668  1.00  0.00     0.243 C 
ATOM      2  O   THR A   2       7.406  -4.154  -9.496  1.00  0.00    -0.271 OA
ATOM      3  N   ASP A   3       8.098  -4.269 -11.674  1.00  0.00    -0.345 N 
ATOM      4  H   ASP A   3       7.928  -4.676 -12.555  1.00  0.00     0.163 HD
ENDROOT
BRANCH   1   5
ATOM      5  CA  THR A   2       5.778  -4.889 -11.162  1.00  0.00     0.205 C 
BRANCH   5   6
ATOM      6  N   THR A   2       4.742  -4.302 -10.312  1.00  0.00    -0.344 N 
ATOM      7  C   THR A   1       3.918  -5.061  -9.511  1.00  0.00     0.251 C 
ATOM      8  O   THR A   1       4.071  -6.264  -9.335  1.00  0.00    -0.271 OA
ATOM      9  H   THR A   2       4.629  -3.324 -10.312  1.00  0.00     0.163 HD
BRANCH   7  10
ATOM     10  CA  THR A   1       2.814  -4.219  -8.838  1.00  0.00     0.302 C 
BRANCH  10  11
ATOM     11  CB  THR A   1       1.863  -5.087  -7.984  1.00  0.00     0.153 C 
ATOM     12  CG2 THR A   1       1.063  -4.262  -6.980  1.00  0.00     0.042 C 
BRANCH  11  13
ATOM     13  OG1 THR A   1       0.933  -5.757  -8.859  1.00  0.00    -0.393 OA
ATOM     14  H   THR A   1       1.308  -6.606  -9.140  1.00  0.00     0.210 HD
ENDBRANCH  11  13
ENDBRANCH  10  11
BRANCH  10  15
ATOM     15  N   THR A   1       2.063  -3.477  -9.901  1.00  0.00    -0.064 N 
ATOM     16  H   THR A   1       2.715  -3.152 -10.616  1.00  0.00     0.275 HD
ATOM     17  H   THR A   1       1.588  -2.676  -9.485  1.00  0.00     0.275 HD
ATOM     18  H   THR A   1       1.374  -4.098 -10.326  1.00  0.00     0.275 HD
ENDBRANCH  10  15
ENDBRANCH   7  10
ENDBRANCH   5   6
BRANCH   5  19
ATOM     19  CB  THR A   2       5.602  -4.534 -12.656  1.00  0.00     0.146 C 
ATOM     20  CG2 THR A   2       4.257  -4.976 -13.221  1.00  0.00     0.042 C 
BRANCH  19  21
ATOM     21  OG1 THR A   2       5.706  -3.114 -12.854  1.00  0.00    -0.393 OA
ATOM     22  H   THR A   2       6.565  -2.804 -12.528  1.00  0.00     0.210 HD
ENDBRANCH  19  21
ENDBRANCH   5  19
ENDBRANCH   1   5
BRANCH   3  23
ATOM     23  CA  ASP A   3       9.326  -3.509 -11.470  1.00  0.00     0.186 C 
BRANCH  23  24
ATOM     24  CB  ASP A   3      10.526  -4.425 -11.240  1.00  0.00     0.147 C 
BRANCH  24  25
ATOM     25  CG  ASP A   3      10.198  -5.878 -11.441  1.00  0.00     0.175 C 
ATOM     26  OD1 ASP A   3       9.982  -6.711 -10.578  1.00  0.00    -0.648 OA
ATOM     27  OD2 ASP A   3      10.216  -6.223 -12.742  1.00  0.00    -0.648 OA
ENDBRANCH  24  25
ENDBRANCH  23  24
BRANCH  23  28
ATOM     28  C   ASP A   3       9.540  -2.563 -12.674  1.00  0.00     0.241 C 
ATOM     29  O   ASP A   3      10.241  -1.556 -12.611  1.00  0.00    -0.271 OA
ATOM     30  N   LEU A   4       8.876  -2.930 -13.826  1.00  0.00    -0.345 N 
ATOM     31  H   LEU A   4       8.430  -3.806 -13.874  1.00  0.00     0.163 HD
BRANCH  30  32
ATOM     32  CA  LEU A   4       8.827  -2.024 -14.986  1.00  0.00     0.185 C 
BRANCH  32  33
ATOM     33  CB  LEU A   4      10.089  -2.238 -15.834  1.00  0.00     0.040 C 
BRANCH  33  34
ATOM     34  CG  LEU A   4      10.438  -3.676 -16.270  1.00  0.00    -0.020 C 
ATOM     35  CD1 LEU A   4      11.635  -4.265 -15.520  1.00  0.00     0.009 C 
ATOM     36  CD2 LEU A   4      10.618  -3.818 -17.782  1.00  0.00     0.009 C 
ENDBRANCH  33  34
ENDBRANCH  32  33
BRANCH  32  37
ATOM     37  C   LEU A   4       7.553  -2.391 -15.740  1.00  0.00     0.196 C 
ATOM     38  O   LEU A   4       6.935  -3.440 -15.628  1.00  0.00    -0.646 OA
ATOM     39  OXT LEU A   4       7.124  -1.430 -16.578  1.00  0.00    -0.646 OA
ENDBRANCH  32  37
ENDBRANCH  30  32
ENDBRANCH  23  28
ENDBRANCH   3  23
TORSDOF 16
ENDMDL
MODEL 5
REMARK VINA RESULT:      -7.0      3.664      8.488
REMARK  16 active torsions:
REMARK  status: ('A' for Active; 'I' for Inactive)
REMARK    1  A    between atoms: CB_2  and  OG1_3 
REMARK    2  A    between atoms: CB_2  and  CA_4 
REMARK    3  A    between atoms: CA_4  and  N_5 
REMARK    4  A    between atoms: CA_4  and  C_6 
REMARK       I    between atoms: C_6  and  N_12 
REMARK    5  A    between atoms: N_12  and  CA_13 
REMARK    6  A    between atoms: CA_13  and  CB_14 
REMARK    7  A    between atoms: CA_13  and  C_17 
REMARK    8  A    between atoms: CB_14  and  OG1_16 
REMARK       I    between atoms: C_17  and  N_21 
REMARK    9  A    between atoms: N_21  and  CA_22 
REMARK   10  A    between atoms: CA_22  and  CB_23 
REMARK   11  A    between atoms: CA_22  and  C_27 
REMARK   12  A    between atoms: CB_23  and  CG_24 
REMARK       I    between atoms: C_27  and  N_30 
REMARK   13  A    between atoms: N_30  and  CA_31 
REMARK   14  A    between atoms: CA_31  and  CB_32 
REMARK   15  A    between atoms: CA_31  and  C_36 
REMARK   16  A    between atoms: CB_32  and  CG_33 
ROOT
ATOM      1  C   THR A   2       5.722  -4.065 -12.953  1.00  0.00     0.243 C 
ATOM      2  O   THR A   2       5.369  -2.896 -13.093  1.00  0.00    -0.271 OA
ATOM      3  N   ASP A   3       4.834  -5.074 -12.638  1.00  0.00    -0.345 N 
ATOM      4  H   ASP A   3       5.127  -6.011 -12.718  1.00  0.00     0.163 HD
ENDROOT
BRANCH   1   5
ATOM      5  CA  THR A   2       7.197  -4.514 -13.000  1.00  0.00     0.205 C 
BRANCH   5   6
ATOM      6  N   THR A   2       8.006  -3.464 -13.621  1.00  0.00    -0.344 N 
ATOM      7  C   THR A   1       8.528  -3.580 -14.891  1.00  0.00     0.251 C 
ATOM      8  O   THR A   1       8.246  -4.497 -15.653  1.00  0.00    -0.271 OA
ATOM      9  H   THR A   2       8.185  -2.642 -13.111  1.00  0.00     0.163 HD
BRANCH   7  10
ATOM     10  CA  THR A   1       9.468  -2.411 -15.249  1.00  0.00     0.302 C 
BRANCH  10  11
ATOM     11  CB  THR A   1       8.805  -1.412 -16.224  1.00  0.00     0.153 C 
ATOM     12  CG2 THR A   1       9.167  -1.692 -17.680  1.00  0.00     0.042 C 
BRANCH  11  13
ATOM     13  OG1 THR A   1       7.373  -1.510 -16.089  1.00  0.00    -0.393 OA
ATOM     14  H   THR A   1       7.089  -2.411 -16.309  1.00  0.00     0.210 HD
ENDBRANCH  11  13
ENDBRANCH  10  11
BRANCH  10  15
ATOM     15  N   THR A   1      10.733  -2.972 -15.824  1.00  0.00    -0.064 N 
ATOM     16  H   THR A   1      10.568  -3.265 -16.788  1.00  0.00     0.275 HD
ATOM     17  H   THR A   1      11.030  -3.775 -15.270  1.00  0.00     0.275 HD
ATOM     18  H   THR A   1      11.460  -2.257 -15.806  1.00  0.00     0.275 HD
ENDBRANCH  10  15
ENDBRANCH   7  10
ENDBRANCH   5   6
BRANCH   5  19
ATOM     19  CB  THR A   2       7.684  -4.888 -11.582  1.00  0.00     0.146 C 
ATOM     20  CG2 THR A   2       9.181  -4.670 -11.387  1.00  0.00     0.042 C 
BRANCH  19  21
ATOM     21  OG1 THR A   2       7.004  -4.104 -10.589  1.00  0.00    -0.393 OA
ATOM     22  H   THR A   2       6.982  -3.175 -10.869  1.00  0.00     0.210 HD
ENDBRANCH  19  21
ENDBRANCH   5  19
ENDBRANCH   1   5
BRANCH   3  23
ATOM     23  CA  ASP A   3       3.476  -4.793 -12.189  1.00  0.00     0.186 C 
BRANCH  23  24
ATOM     24  CB  ASP A   3       2.563  -6.006 -12.353  1.00  0.00     0.147 C 
BRANCH  24  25
ATOM     25  CG  ASP A   3       1.616  -5.871 -13.513  1.00  0.00     0.175 C 
ATOM     26  OD1 ASP A   3       0.398  -5.916 -13.479  1.00  0.00    -0.648 OA
ATOM     27  OD2 ASP A   3       2.268  -5.740 -14.683  1.00  0.00    -0.648 OA
ENDBRANCH  24  25
ENDBRANCH  23  24
BRANCH  23  28
ATOM     28  C   ASP A   3       3.520  -4.294 -10.726  1.00  0.00     0.241 C 
ATOM     29  O   ASP A   3       3.105  -3.188 -10.388  1.00  0.00    -0.271 OA
ATOM     30  N   LEU A   4       4.069  -5.183  -9.826  1.00  0.00    -0.345 N 
ATOM     31  H   LEU A   4       4.272  -6.103 -10.111  1.00  0.00     0.163 HD
BRANCH  30  32
ATOM     32  CA  LEU A   4       4.357  -4.770  -8.442  1.00  0.00     0.185 C 
BRANCH  32  33
ATOM     33  CB  LEU A   4       3.315  -5.405  -7.509  1.00  0.00     0.040 C 
BRANCH  33  34
ATOM     34  CG  LEU A   4       2.100  -6.110  -8.148  1.00  0.00    -0.020 C 
ATOM     35  CD1 LEU A   4       0.757  -5.527  -7.704  1.00  0.00     0.009 C 
ATOM     36  CD2 LEU A   4       2.123  -7.628  -7.967  1.00  0.00     0.009 C 
ENDBRANCH  33  34
ENDBRANCH  32  33
BRANCH  32  37
ATOM     37  C   LEU A   4       5.771  -5.261  -8.152  1.00  0.00     0.196 C 
ATOM     38  O   LEU A   4       6.607  -4.672  -7.481  1.00  0.00    -0.646 OA
ATOM     39  OXT LEU A   4       6.056  -6.453  -8.707  1.00  0.00    -0.646 OA
ENDBRANCH  32  37
ENDBRANCH  30  32
ENDBRANCH  23  28
ENDBRANCH   3  23
TORSDOF 16
ENDMDL
MODEL 6
REMARK VINA RESULT:      -7.0      3.412      8.385
REMARK  16 active torsions:
REMARK  status: ('A' for Active; 'I' for Inactive)
REMARK    1  A    between atoms: CB_2  and  OG1_3 
REMARK    2  A    between atoms: CB_2  and  CA_4 
REMARK    3  A    between atoms: CA_4  and  N_5 
REMARK    4  A    between atoms: CA_4  and  C_6 
REMARK       I    between atoms: C_6  and  N_12 
REMARK    5  A    between atoms: N_12  and  CA_13 
REMARK    6  A    between atoms: CA_13  and  CB_14 
REMARK    7  A    between atoms: CA_13  and  C_17 
REMARK    8  A    between atoms: CB_14  and  OG1_16 
REMARK       I    between atoms: C_17  and  N_21 
REMARK    9  A    between atoms: N_21  and  CA_22 
REMARK   10  A    between atoms: CA_22  and  CB_23 
REMARK   11  A    between atoms: CA_22  and  C_27 
REMARK   12  A    between atoms: CB_23  and  CG_24 
REMARK       I    between atoms: C_27  and  N_30 
REMARK   13  A    between atoms: N_30  and  CA_31 
REMARK   14  A    between atoms: CA_31  and  CB_32 
REMARK   15  A    between atoms: CA_31  and  C_36 
REMARK   16  A    between atoms: CB_32  and  CG_33 
ROOT
ATOM      1  C   THR A   2       5.563  -4.058 -12.752  1.00  0.00     0.243 C 
ATOM      2  O   THR A   2       5.157  -2.940 -13.060  1.00  0.00    -0.271 OA
ATOM      3  N   ASP A   3       4.708  -5.101 -12.455  1.00  0.00    -0.345 N 
ATOM      4  H   ASP A   3       5.071  -6.015 -12.397  1.00  0.00     0.163 HD
ENDROOT
BRANCH   1   5
ATOM      5  CA  THR A   2       7.056  -4.390 -12.554  1.00  0.00     0.205 C 
BRANCH   5   6
ATOM      6  N   THR A   2       7.874  -3.340 -13.162  1.00  0.00    -0.344 N 
ATOM      7  C   THR A   1       8.473  -3.482 -14.394  1.00  0.00     0.251 C 
ATOM      8  O   THR A   1       8.260  -4.430 -15.141  1.00  0.00    -0.271 OA
ATOM      9  H   THR A   2       8.001  -2.497 -12.669  1.00  0.00     0.163 HD
BRANCH   7  10
ATOM     10  CA  THR A   1       9.402  -2.299 -14.736  1.00  0.00     0.302 C 
BRANCH  10  11
ATOM     11  CB  THR A   1       8.840  -1.433 -15.885  1.00  0.00     0.153 C 
ATOM     12  CG2 THR A   1       9.433  -1.805 -17.241  1.00  0.00     0.042 C 
BRANCH  11  13
ATOM     13  OG1 THR A   1       7.412  -1.619 -15.951  1.00  0.00    -0.393 OA
ATOM     14  H   THR A   1       7.142  -2.284 -15.300  1.00  0.00     0.210 HD
ENDBRANCH  11  13
ENDBRANCH  10  11
BRANCH  10  15
ATOM     15  N   THR A   1      10.758  -2.839 -15.078  1.00  0.00    -0.064 N 
ATOM     16  H   THR A   1      10.983  -3.615 -14.455  1.00  0.00     0.275 HD
ATOM     17  H   THR A   1      11.454  -2.102 -14.968  1.00  0.00     0.275 HD
ATOM     18  H   THR A   1      10.759  -3.167 -16.044  1.00  0.00     0.275 HD
ENDBRANCH  10  15
ENDBRANCH   7  10
ENDBRANCH   5   6
BRANCH   5  19
ATOM     19  CB  THR A   2       7.361  -4.596 -11.053  1.00  0.00     0.146 C 
ATOM     20  CG2 THR A   2       8.654  -3.921 -10.607  1.00  0.00     0.042 C 
BRANCH  19  21
ATOM     21  OG1 THR A   2       6.299  -4.066 -10.243  1.00  0.00    -0.393 OA
ATOM     22  H   THR A   2       6.584  -3.229  -9.844  1.00  0.00     0.210 HD
ENDBRANCH  19  21
ENDBRANCH   5  19
ENDBRANCH   1   5
BRANCH   3  23
ATOM     23  CA  ASP A   3       3.285  -4.888 -12.224  1.00  0.00     0.186 C 
BRANCH  23  24
ATOM     24  CB  ASP A   3       2.465  -6.131 -12.561  1.00  0.00     0.147 C 
BRANCH  24  25
ATOM     25  CG  ASP A   3       1.573  -5.935 -13.755  1.00  0.00     0.175 C 
ATOM     26  OD1 ASP A   3       1.915  -5.686 -14.899  1.00  0.00    -0.648 OA
ATOM     27  OD2 ASP A   3       0.269  -6.010 -13.428  1.00  0.00    -0.648 OA
ENDBRANCH  24  25
ENDBRANCH  23  24
BRANCH  23  28
ATOM     28  C   ASP A   3       3.072  -4.432 -10.762  1.00  0.00     0.241 C 
ATOM     29  O   ASP A   3       3.184  -3.262 -10.407  1.00  0.00    -0.271 OA
ATOM     30  N   LEU A   4       2.755  -5.444  -9.878  1.00  0.00    -0.345 N 
ATOM     31  H   LEU A   4       2.550  -6.344 -10.221  1.00  0.00     0.163 HD
BRANCH  30  32
ATOM     32  CA  LEU A   4       2.719  -5.192  -8.429  1.00  0.00     0.185 C 
BRANCH  32  33
ATOM     33  CB  LEU A   4       1.316  -5.524  -7.903  1.00  0.00     0.040 C 
BRANCH  33  34
ATOM     34  CG  LEU A   4       0.680  -4.568  -6.871  1.00  0.00    -0.020 C 
ATOM     35  CD1 LEU A   4      -0.801  -4.851  -6.613  1.00  0.00     0.009 C 
ATOM     36  CD2 LEU A   4       0.905  -3.092  -7.204  1.00  0.00     0.009 C 
ENDBRANCH  33  34
ENDBRANCH  32  33
BRANCH  32  37
ATOM     37  C   LEU A   4       3.792  -6.094  -7.829  1.00  0.00     0.196 C 
ATOM     38  O   LEU A   4       3.602  -6.979  -7.005  1.00  0.00    -0.646 OA
ATOM     39  OXT LEU A   4       5.031  -5.848  -8.293  1.00  0.00    -0.646 OA
ENDBRANCH  32  37
ENDBRANCH  30  32
ENDBRANCH  23  28
ENDBRANCH   3  23
TORSDOF 16
ENDMDL
MODEL 7
REMARK VINA RESULT:      -7.0      2.092      5.229
REMARK  16 active torsions:
REMARK  status: ('A' for Active; 'I' for Inactive)
REMARK    1  A    between atoms: CB_2  and  OG1_3 
REMARK    2  A    between atoms: CB_2  and  CA_4 
REMARK    3  A    between atoms: CA_4  and  N_5 
REMARK    4  A    between atoms: CA_4  and  C_6 
REMARK       I    between atoms: C_6  and  N_12 
REMARK    5  A    between atoms: N_12  and  CA_13 
REMARK    6  A    between atoms: CA_13  and  CB_14 
REMARK    7  A    between atoms: CA_13  and  C_17 
REMARK    8  A    between atoms: CB_14  and  OG1_16 
REMARK       I    between atoms: C_17  and  N_21 
REMARK    9  A    between atoms: N_21  and  CA_22 
REMARK   10  A    between atoms: CA_22  and  CB_23 
REMARK   11  A    between atoms: CA_22  and  C_27 
REMARK   12  A    between atoms: CB_23  and  CG_24 
REMARK       I    between atoms: C_27  and  N_30 
REMARK   13  A    between atoms: N_30  and  CA_31 
REMARK   14  A    between atoms: CA_31  and  CB_32 
REMARK   15  A    between atoms: CA_31  and  C_36 
REMARK   16  A    between atoms: CB_32  and  CG_33 
ROOT
ATOM      1  C   THR A   2       2.856  -4.234  -9.578  1.00  0.00     0.243 C 
ATOM      2  O   THR A   2       2.881  -3.264 -10.332  1.00  0.00    -0.271 OA
ATOM      3  N   ASP A   3       3.044  -5.526 -10.027  1.00  0.00    -0.345 N 
ATOM      4  H   ASP A   3       3.199  -6.243  -9.370  1.00  0.00     0.163 HD
ENDROOT
BRANCH   1   5
ATOM      5  CA  THR A   2       2.502  -4.131  -8.081  1.00  0.00     0.205 C 
BRANCH   5   6
ATOM      6  N   THR A   2       1.058  -4.292  -7.909  1.00  0.00    -0.344 N 
ATOM      7  C   THR A   1       0.326  -3.544  -7.013  1.00  0.00     0.251 C 
ATOM      8  O   THR A   1       0.791  -2.594  -6.392  1.00  0.00    -0.271 OA
ATOM      9  H   THR A   2       0.589  -4.963  -8.457  1.00  0.00     0.163 HD
BRANCH   7  10
ATOM     10  CA  THR A   1      -1.140  -4.013  -6.914  1.00  0.00     0.302 C 
BRANCH  10  11
ATOM     11  CB  THR A   1      -2.135  -2.868  -7.207  1.00  0.00     0.153 C 
ATOM     12  CG2 THR A   1      -3.589  -3.303  -7.044  1.00  0.00     0.042 C 
BRANCH  11  13
ATOM     13  OG1 THR A   1      -1.883  -1.786  -6.290  1.00  0.00    -0.393 OA
ATOM     14  H   THR A   1      -2.035  -2.090  -5.382  1.00  0.00     0.210 HD
ENDBRANCH  11  13
ENDBRANCH  10  11
BRANCH  10  15
ATOM     15  N   THR A   1      -1.366  -4.592  -5.551  1.00  0.00    -0.064 N 
ATOM     16  H   THR A   1      -2.007  -5.383  -5.619  1.00  0.00     0.275 HD
ATOM     17  H   THR A   1      -1.769  -3.880  -4.942  1.00  0.00     0.275 HD
ATOM     18  H   THR A   1      -0.476  -4.908  -5.164  1.00  0.00     0.275 HD
ENDBRANCH  10  15
ENDBRANCH   7  10
ENDBRANCH   5   6
BRANCH   5  19
ATOM     19  CB  THR A   2       3.321  -5.160  -7.269  1.00  0.00     0.146 C 
ATOM     20  CG2 THR A   2       2.748  -6.571  -7.339  1.00  0.00     0.042 C 
BRANCH  19  21
ATOM     21  OG1 THR A   2       4.674  -5.223  -7.749  1.00  0.00    -0.393 OA
ATOM     22  H   THR A   2       4.671  -5.278  -8.717  1.00  0.00     0.210 HD
ENDBRANCH  19  21
ENDBRANCH   5  19
ENDBRANCH   1   5
BRANCH   3  23
ATOM     23  CA  ASP A   3       3.019  -5.860 -11.446  1.00  0.00     0.186 C 
BRANCH  23  24
ATOM     24  CB  ASP A   3       2.064  -4.956 -12.223  1.00  0.00     0.147 C 
BRANCH  24  25
ATOM     25  CG  ASP A   3       1.379  -5.667 -13.357  1.00  0.00     0.175 C 
ATOM     26  OD1 ASP A   3       0.274  -6.181 -13.344  1.00  0.00    -0.648 OA
ATOM     27  OD2 ASP A   3       2.162  -5.743 -14.449  1.00  0.00    -0.648 OA
ENDBRANCH  24  25
ENDBRANCH  23  24
BRANCH  23  28
ATOM     28  C   ASP A   3       4.459  -5.799 -12.005  1.00  0.00     0.241 C 
ATOM     29  O   ASP A   3       4.939  -6.689 -12.702  1.00  0.00    -0.271 OA
ATOM     30  N   LEU A   4       5.171  -4.670 -11.655  1.00  0.00    -0.345 N 
ATOM     31  H   LEU A   4       4.712  -3.925 -11.205  1.00  0.00     0.163 HD
BRANCH  30  32
ATOM     32  CA  LEU A   4       6.610  -4.569 -11.947  1.00  0.00     0.185 C 
BRANCH  32  33
ATOM     33  CB  LEU A   4       6.840  -3.386 -12.899  1.00  0.00     0.040 C 
BRANCH  33  34
ATOM     34  CG  LEU A   4       7.826  -3.576 -14.071  1.00  0.00    -0.020 C 
ATOM     35  CD1 LEU A   4       9.181  -2.904 -13.839  1.00  0.00     0.009 C 
ATOM     36  CD2 LEU A   4       7.237  -3.169 -15.422  1.00  0.00     0.009 C 
ENDBRANCH  33  34
ENDBRANCH  32  33
BRANCH  32  37
ATOM     37  C   LEU A   4       7.290  -4.367 -10.597  1.00  0.00     0.196 C 
ATOM     38  O   LEU A   4       6.724  -4.092  -9.548  1.00  0.00    -0.646 OA
ATOM     39  OXT LEU A   4       8.625  -4.525 -10.633  1.00  0.00    -0.646 OA
ENDBRANCH  32  37
ENDBRANCH  30  32
ENDBRANCH  23  28
ENDBRANCH   3  23
TORSDOF 16
ENDMDL
MODEL 8
REMARK VINA RESULT:      -7.0      3.268      7.892
REMARK  16 active torsions:
REMARK  status: ('A' for Active; 'I' for Inactive)
REMARK    1  A    between atoms: CB_2  and  OG1_3 
REMARK    2  A    between atoms: CB_2  and  CA_4 
REMARK    3  A    between atoms: CA_4  and  N_5 
REMARK    4  A    between atoms: CA_4  and  C_6 
REMARK       I    between atoms: C_6  and  N_12 
REMARK    5  A    between atoms: N_12  and  CA_13 
REMARK    6  A    between atoms: CA_13  and  CB_14 
REMARK    7  A    between atoms: CA_13  and  C_17 
REMARK    8  A    between atoms: CB_14  and  OG1_16 
REMARK       I    between atoms: C_17  and  N_21 
REMARK    9  A    between atoms: N_21  and  CA_22 
REMARK   10  A    between atoms: CA_22  and  CB_23 
REMARK   11  A    between atoms: CA_22  and  C_27 
REMARK   12  A    between atoms: CB_23  and  CG_24 
REMARK       I    between atoms: C_27  and  N_30 
REMARK   13  A    between atoms: N_30  and  CA_31 
REMARK   14  A    between atoms: CA_31  and  CB_32 
REMARK   15  A    between atoms: CA_31  and  C_36 
REMARK   16  A    between atoms: CB_32  and  CG_33 
ROOT
ATOM      1  C   THR A   2       5.288  -5.789 -10.370  1.00  0.00     0.243 C 
ATOM      2  O   THR A   2       4.945  -6.804 -10.972  1.00  0.00    -0.271 OA
ATOM      3  N   ASP A   3       5.094  -5.632  -9.012  1.00  0.00    -0.345 N 
ATOM      4  H   ASP A   3       5.546  -4.892  -8.546  1.00  0.00     0.163 HD
ENDROOT
BRANCH   1   5
ATOM      5  CA  THR A   2       5.864  -4.543 -11.073  1.00  0.00     0.205 C 
BRANCH   5   6
ATOM      6  N   THR A   2       7.210  -4.840 -11.565  1.00  0.00    -0.344 N 
ATOM      7  C   THR A   1       8.349  -4.404 -10.925  1.00  0.00     0.251 C 
ATOM      8  O   THR A   1       8.338  -3.859  -9.827  1.00  0.00    -0.271 OA
ATOM      9  H   THR A   2       7.305  -5.373 -12.388  1.00  0.00     0.163 HD
BRANCH   7  10
ATOM     10  CA  THR A   1       9.629  -4.715 -11.727  1.00  0.00     0.302 C 
BRANCH  10  11
ATOM     11  CB  THR A   1      10.847  -3.919 -11.207  1.00  0.00     0.153 C 
ATOM     12  CG2 THR A   1      11.071  -2.623 -11.980  1.00  0.00     0.042 C 
BRANCH  11  13
ATOM     13  OG1 THR A   1      10.627  -3.585  -9.822  1.00  0.00    -0.393 OA
ATOM     14  H   THR A   1      11.133  -2.789  -9.597  1.00  0.00     0.210 HD
ENDBRANCH  11  13
ENDBRANCH  10  11
BRANCH  10  15
ATOM     15  N   THR A   1       9.370  -4.423 -13.174  1.00  0.00    -0.064 N 
ATOM     16  H   THR A   1      10.168  -3.923 -13.569  1.00  0.00     0.275 HD
ATOM     17  H   THR A   1       8.532  -3.849 -13.260  1.00  0.00     0.275 HD
ATOM     18  H   THR A   1       9.236  -5.300 -13.679  1.00  0.00     0.275 HD
ENDBRANCH  10  15
ENDBRANCH   7  10
ENDBRANCH   5   6
BRANCH   5  19
ATOM     19  CB  THR A   2       4.906  -4.073 -12.190  1.00  0.00     0.146 C 
ATOM     20  CG2 THR A   2       3.546  -3.626 -11.664  1.00  0.00     0.042 C 
BRANCH  19  21
ATOM     21  OG1 THR A   2       5.472  -2.966 -12.910  1.00  0.00    -0.393 OA
ATOM     22  H   THR A   2       4.905  -2.186 -12.802  1.00  0.00     0.210 HD
ENDBRANCH  19  21
ENDBRANCH   5  19
ENDBRANCH   1   5
BRANCH   3  23
ATOM     23  CA  ASP A   3       4.237  -6.531  -8.247  1.00  0.00     0.186 C 
BRANCH  23  24
ATOM     24  CB  ASP A   3       4.716  -6.677  -6.805  1.00  0.00     0.147 C 
BRANCH  24  25
ATOM     25  CG  ASP A   3       6.194  -6.445  -6.654  1.00  0.00     0.175 C 
ATOM     26  OD1 ASP A   3       6.789  -5.387  -6.766  1.00  0.00    -0.648 OA
ATOM     27  OD2 ASP A   3       6.862  -7.590  -6.420  1.00  0.00    -0.648 OA
ENDBRANCH  24  25
ENDBRANCH  23  24
BRANCH  23  28
ATOM     28  C   ASP A   3       2.778  -6.028  -8.327  1.00  0.00     0.241 C 
ATOM     29  O   ASP A   3       1.968  -6.461  -9.143  1.00  0.00    -0.271 OA
ATOM     30  N   LEU A   4       2.452  -5.046  -7.414  1.00  0.00    -0.345 N 
ATOM     31  H   LEU A   4       3.086  -4.817  -6.697  1.00  0.00     0.163 HD
BRANCH  30  32
ATOM     32  CA  LEU A   4       1.165  -4.336  -7.502  1.00  0.00     0.185 C 
BRANCH  32  33
ATOM     33  CB  LEU A   4       0.344  -4.641  -6.240  1.00  0.00     0.040 C 
BRANCH  33  34
ATOM     34  CG  LEU A   4      -1.158  -4.951  -6.407  1.00  0.00    -0.020 C 
ATOM     35  CD1 LEU A   4      -1.998  -3.720  -6.752  1.00  0.00     0.009 C 
ATOM     36  CD2 LEU A   4      -1.751  -5.701  -5.214  1.00  0.00     0.009 C 
ENDBRANCH  33  34
ENDBRANCH  32  33
BRANCH  32  37
ATOM     37  C   LEU A   4       1.520  -2.857  -7.619  1.00  0.00     0.196 C 
ATOM     38  O   LEU A   4       2.238  -2.362  -8.476  1.00  0.00    -0.646 OA
ATOM     39  OXT LEU A   4       0.955  -2.087  -6.671  1.00  0.00    -0.646 OA
ENDBRANCH  32  37
ENDBRANCH  30  32
ENDBRANCH  23  28
ENDBRANCH   3  23
TORSDOF 16
ENDMDL
MODEL 9
REMARK VINA RESULT:      -6.9      4.395      9.127
REMARK  16 active torsions:
REMARK  status: ('A' for Active; 'I' for Inactive)
REMARK    1  A    between atoms: CB_2  and  OG1_3 
REMARK    2  A    between atoms: CB_2  and  CA_4 
REMARK    3  A    between atoms: CA_4  and  N_5 
REMARK    4  A    between atoms: CA_4  and  C_6 
REMARK       I    between atoms: C_6  and  N_12 
REMARK    5  A    between atoms: N_12  and  CA_13 
REMARK    6  A    between atoms: CA_13  and  CB_14 
REMARK    7  A    between atoms: CA_13  and  C_17 
REMARK    8  A    between atoms: CB_14  and  OG1_16 
REMARK       I    between atoms: C_17  and  N_21 
REMARK    9  A    between atoms: N_21  and  CA_22 
REMARK   10  A    between atoms: CA_22  and  CB_23 
REMARK   11  A    between atoms: CA_22  and  C_27 
REMARK   12  A    between atoms: CB_23  and  CG_24 
REMARK       I    between atoms: C_27  and  N_30 
REMARK   13  A    between atoms: N_30  and  CA_31 
REMARK   14  A    between atoms: CA_31  and  CB_32 
REMARK   15  A    between atoms: CA_31  and  C_36 
REMARK   16  A    between atoms: CB_32  and  CG_33 
ROOT
ATOM      1  C   THR A   2       7.732  -3.637 -12.767  1.00  0.00     0.243 C 
ATOM      2  O   THR A   2       7.136  -2.621 -13.120  1.00  0.00    -0.271 OA
ATOM      3  N   ASP A   3       7.181  -4.553 -11.892  1.00  0.00    -0.345 N 
ATOM      4  H   ASP A   3       7.614  -5.431 -11.785  1.00  0.00     0.163 HD
ENDROOT
BRANCH   1   5
ATOM      5  CA  THR A   2       9.190  -3.943 -13.166  1.00  0.00     0.205 C 
BRANCH   5   6
ATOM      6  N   THR A   2       9.583  -3.077 -14.278  1.00  0.00    -0.344 N 
ATOM      7  C   THR A   1       9.325  -3.392 -15.594  1.00  0.00     0.251 C 
ATOM      8  O   THR A   1       8.630  -4.342 -15.936  1.00  0.00    -0.271 OA
ATOM      9  H   THR A   2      10.050  -2.233 -14.077  1.00  0.00     0.163 HD
BRANCH   7  10
ATOM     10  CA  THR A   1       9.976  -2.396 -16.575  1.00  0.00     0.302 C 
BRANCH  10  11
ATOM     11  CB  THR A   1       9.124  -1.120 -16.757  1.00  0.00     0.153 C 
ATOM     12  CG2 THR A   1       8.366  -1.108 -18.082  1.00  0.00     0.042 C 
BRANCH  11  13
ATOM     13  OG1 THR A   1       8.162  -1.047 -15.686  1.00  0.00    -0.393 OA
ATOM     14  H   THR A   1       7.304  -0.767 -16.041  1.00  0.00     0.210 HD
ENDBRANCH  11  13
ENDBRANCH  10  11
BRANCH  10  15
ATOM     15  N   THR A   1      10.199  -3.089 -17.885  1.00  0.00    -0.064 N 
ATOM     16  H   THR A   1      11.168  -3.405 -17.943  1.00  0.00     0.275 HD
ATOM     17  H   THR A   1      10.006  -2.442 -18.649  1.00  0.00     0.275 HD
ATOM     18  H   THR A   1       9.575  -3.894 -17.954  1.00  0.00     0.275 HD
ENDBRANCH  10  15
ENDBRANCH   7  10
ENDBRANCH   5   6
BRANCH   5  19
ATOM     19  CB  THR A   2      10.118  -3.802 -11.939  1.00  0.00     0.146 C 
ATOM     20  CG2 THR A   2      11.339  -2.930 -12.209  1.00  0.00     0.042 C 
BRANCH  19  21
ATOM     21  OG1 THR A   2       9.411  -3.219 -10.832  1.00  0.00    -0.393 OA
ATOM     22  H   THR A   2       9.613  -2.272 -10.783  1.00  0.00     0.210 HD
ENDBRANCH  19  21
ENDBRANCH   5  19
ENDBRANCH   1   5
BRANCH   3  23
ATOM     23  CA  ASP A   3       5.980  -4.257 -11.122  1.00  0.00     0.186 C 
BRANCH  23  24
ATOM     24  CB  ASP A   3       4.767  -5.018 -11.652  1.00  0.00     0.147 C 
BRANCH  24  25
ATOM     25  CG  ASP A   3       3.479  -4.262 -11.474  1.00  0.00     0.175 C 
ATOM     26  OD1 ASP A   3       3.252  -3.373 -10.671  1.00  0.00    -0.648 OA
ATOM     27  OD2 ASP A   3       2.512  -4.714 -12.294  1.00  0.00    -0.648 OA
ENDBRANCH  24  25
ENDBRANCH  23  24
BRANCH  23  28
ATOM     28  C   ASP A   3       6.248  -4.559  -9.630  1.00  0.00     0.241 C 
ATOM     29  O   ASP A   3       7.170  -4.045  -9.003  1.00  0.00    -0.271 OA
ATOM     30  N   LEU A   4       5.375  -5.459  -9.054  1.00  0.00    -0.345 N 
ATOM     31  H   LEU A   4       4.576  -5.749  -9.551  1.00  0.00     0.163 HD
BRANCH  30  32
ATOM     32  CA  LEU A   4       5.625  -5.990  -7.704  1.00  0.00     0.185 C 
BRANCH  32  33
ATOM     33  CB  LEU A   4       4.286  -6.109  -6.962  1.00  0.00     0.040 C 
BRANCH  33  34
ATOM     34  CG  LEU A   4       2.991  -5.818  -7.749  1.00  0.00    -0.020 C 
ATOM     35  CD1 LEU A   4       2.100  -4.766  -7.084  1.00  0.00     0.009 C 
ATOM     36  CD2 LEU A   4       2.193  -7.081  -8.078  1.00  0.00     0.009 C 
ENDBRANCH  33  34
ENDBRANCH  32  33
BRANCH  32  37
ATOM     37  C   LEU A   4       6.295  -7.344  -7.913  1.00  0.00     0.196 C 
ATOM     38  O   LEU A   4       5.921  -8.212  -8.690  1.00  0.00    -0.646 OA
ATOM     39  OXT LEU A   4       7.388  -7.532  -7.151  1.00  0.00    -0.646 OA
ENDBRANCH  32  37
ENDBRANCH  30  32
ENDBRANCH  23  28
ENDBRANCH   3  23
TORSDOF 16
ENDMDL
