MODEL 1
REMARK VINA RESULT:      -7.8      0.000      0.000
REMARK  5 active torsions:
REMARK  status: ('A' for Active; 'I' for Inactive)
REMARK    1  A    between atoms: C_2  and  C_4 
REMARK    2  A    between atoms: C_4  and  C_5 
REMARK    3  A    between atoms: C_5  and  C_7 
REMARK    4  A    between atoms: C_5  and  N_6 
REMARK       I    between atoms: C_7  and  N_9 
REMARK    5  A    between atoms: N_9  and  C_10 
ROOT
HETATM    1  C   UNL     1       2.898  -5.026  -9.992  1.00  0.00     0.035 A 
HETATM    2  C   UNL     1       2.367  -5.295 -11.259  1.00  0.00     0.044 A 
HETATM    3  C   UNL     1       3.184  -5.486 -12.377  1.00  0.00     0.006 A 
HETATM    4  C   UNL     1       4.559  -5.390 -12.198  1.00  0.00     0.090 A 
HETATM    5  C   UNL     1       5.120  -5.098 -10.953  1.00  0.00     0.040 A 
HETATM    6  C   UNL     1       4.284  -4.904  -9.849  1.00  0.00     0.032 A 
HETATM    7  O   UNL     1       5.447  -5.572 -13.274  1.00  0.00    -0.275 OA
HETATM    8  C   UNL     1       4.971  -5.844 -14.548  1.00  0.00     0.288 A 
HETATM    9  O   UNL     1       5.721  -6.000 -15.505  1.00  0.00    -0.260 OA
HETATM   10  C   UNL     1       3.513  -5.938 -14.717  1.00  0.00     0.090 A 
HETATM   11  C   UNL     1       2.645  -5.775 -13.710  1.00  0.00    -0.043 A 
HETATM   12  C   UNL     1       1.160  -5.884 -13.918  1.00  0.00     0.049 C 
ENDROOT
BRANCH   1  13
HETATM   13  N   UNL     1       2.073  -4.852  -8.858  1.00  0.00    -0.325 N 
HETATM   14  C   UNL     1       1.902  -3.660  -8.169  1.00  0.00     0.255 C 
HETATM   15  O   UNL     1       2.395  -2.574  -8.473  1.00  0.00    -0.271 OA
HETATM   16  H   UNL     1       1.479  -5.635  -8.599  1.00  0.00     0.169 HD
BRANCH  14  17
HETATM   17  C   UNL     1       1.079  -3.807  -6.872  1.00  0.00     0.309 C 
BRANCH  17  18
HETATM   18  C   UNL     1      -0.191  -4.639  -7.127  1.00  0.00     0.049 C 
BRANCH  18  19
HETATM   19  C   UNL     1      -1.355  -4.347  -6.154  1.00  0.00    -0.020 C 
HETATM   20  C   UNL     1      -2.570  -3.747  -6.861  1.00  0.00     0.009 C 
HETATM   21  C   UNL     1      -1.755  -5.630  -5.421  1.00  0.00     0.009 C 
ENDBRANCH  18  19
ENDBRANCH  17  18
BRANCH  17  22
HETATM   22  N   UNL     1       0.682  -2.449  -6.435  1.00  0.00     0.092 N 
HETATM   23  H   UNL     1       0.155  -2.544  -5.561  1.00  0.00     0.313 HD
HETATM   24  H   UNL     1       0.014  -2.058  -7.101  1.00  0.00     0.313 HD
ENDBRANCH  17  22
ENDBRANCH  14  17
ENDBRANCH   1  13
TORSDOF 5
ENDMDL
MODEL 2
REMARK VINA RESULT:      -7.6      0.980      2.299
REMARK  5 active torsions:
REMARK  status: ('A' for Active; 'I' for Inactive)
REMARK    1  A    between atoms: C_2  and  C_4 
REMARK    2  A    between atoms: C_4  and  C_5 
REMARK    3  A    between atoms: C_5  and  C_7 
REMARK    4  A    between atoms: C_5  and  N_6 
REMARK       I    between atoms: C_7  and  N_9 
REMARK    5  A    between atoms: N_9  and  C_10 
ROOT
HETATM    1  C   UNL     1       2.634  -4.976 -10.399  1.00  0.00     0.035 A 
HETATM    2  C   UNL     1       4.017  -4.773 -10.478  1.00  0.00     0.044 A 
HETATM    3  C   UNL     1       4.705  -4.838 -11.693  1.00  0.00     0.006 A 
HETATM    4  C   UNL     1       3.971  -5.124 -12.838  1.00  0.00     0.090 A 
HETATM    5  C   UNL     1       2.594  -5.357 -12.790  1.00  0.00     0.040 A 
HETATM    6  C   UNL     1       1.928  -5.293 -11.563  1.00  0.00     0.032 A 
HETATM    7  O   UNL     1       4.590  -5.204 -14.098  1.00  0.00    -0.275 OA
HETATM    8  C   UNL     1       5.957  -5.008 -14.230  1.00  0.00     0.288 A 
HETATM    9  O   UNL     1       6.525  -5.078 -15.314  1.00  0.00    -0.260 OA
HETATM   10  C   UNL     1       6.716  -4.710 -13.007  1.00  0.00     0.090 A 
HETATM   11  C   UNL     1       6.152  -4.622 -11.794  1.00  0.00    -0.043 A 
HETATM   12  C   UNL     1       6.958  -4.310 -10.565  1.00  0.00     0.049 C 
ENDROOT
BRANCH   1  13
HETATM   13  N   UNL     1       1.936  -4.891  -9.174  1.00  0.00    -0.325 N 
HETATM   14  C   UNL     1       1.849  -3.757  -8.380  1.00  0.00     0.255 C 
HETATM   15  O   UNL     1       2.319  -2.651  -8.648  1.00  0.00    -0.271 OA
HETATM   16  H   UNL     1       1.364  -5.690  -8.915  1.00  0.00     0.169 HD
BRANCH  14  17
HETATM   17  C   UNL     1       1.167  -4.003  -7.018  1.00  0.00     0.309 C 
BRANCH  17  18
HETATM   18  C   UNL     1      -0.125  -4.821  -7.199  1.00  0.00     0.049 C 
BRANCH  18  19
HETATM   19  C   UNL     1      -1.269  -4.434  -6.235  1.00  0.00    -0.020 C 
HETATM   20  C   UNL     1      -2.454  -3.800  -6.962  1.00  0.00     0.009 C 
HETATM   21  C   UNL     1      -1.731  -5.667  -5.455  1.00  0.00     0.009 C 
ENDBRANCH  18  19
ENDBRANCH  17  18
BRANCH  17  22
HETATM   22  N   UNL     1       0.822  -2.683  -6.442  1.00  0.00     0.092 N 
HETATM   23  H   UNL     1       0.183  -2.216  -7.093  1.00  0.00     0.313 HD
HETATM   24  H   UNL     1       1.653  -2.092  -6.422  1.00  0.00     0.313 HD
ENDBRANCH  17  22
ENDBRANCH  14  17
ENDBRANCH   1  13
TORSDOF 5
ENDMDL
MODEL 3
REMARK VINA RESULT:      -7.2      4.237      7.961
REMARK  5 active torsions:
REMARK  status: ('A' for Active; 'I' for Inactive)
REMARK    1  A    between atoms: C_2  and  C_4 
REMARK    2  A    between atoms: C_4  and  C_5 
REMARK    3  A    between atoms: C_5  and  C_7 
REMARK    4  A    between atoms: C_5  and  N_6 
REMARK       I    between atoms: C_7  and  N_9 
REMARK    5  A    between atoms: N_9  and  C_10 
ROOT
HETATM    1  C   UNL     1       6.281  -4.221 -12.929  1.00  0.00     0.035 A 
HETATM    2  C   UNL     1       5.159  -4.238 -12.092  1.00  0.00     0.044 A 
HETATM    3  C   UNL     1       3.958  -4.843 -12.478  1.00  0.00     0.006 A 
HETATM    4  C   UNL     1       3.904  -5.427 -13.738  1.00  0.00     0.090 A 
HETATM    5  C   UNL     1       4.996  -5.404 -14.607  1.00  0.00     0.040 A 
HETATM    6  C   UNL     1       6.185  -4.789 -14.203  1.00  0.00     0.032 A 
HETATM    7  O   UNL     1       2.732  -6.056 -14.197  1.00  0.00    -0.275 OA
HETATM    8  C   UNL     1       1.595  -6.103 -13.405  1.00  0.00     0.288 A 
HETATM    9  O   UNL     1       0.559  -6.639 -13.782  1.00  0.00    -0.260 OA
HETATM   10  C   UNL     1       1.673  -5.477 -12.077  1.00  0.00     0.090 A 
HETATM   11  C   UNL     1       2.776  -4.875 -11.611  1.00  0.00    -0.043 A 
HETATM   12  C   UNL     1       2.822  -4.250 -10.245  1.00  0.00     0.049 C 
ENDROOT
BRANCH   1  13
HETATM   13  N   UNL     1       7.500  -3.627 -12.532  1.00  0.00    -0.325 N 
HETATM   14  C   UNL     1       8.457  -4.229 -11.728  1.00  0.00     0.255 C 
HETATM   15  O   UNL     1       8.412  -5.378 -11.290  1.00  0.00    -0.271 OA
HETATM   16  H   UNL     1       7.737  -2.737 -12.960  1.00  0.00     0.169 HD
BRANCH  14  17
HETATM   17  C   UNL     1       9.605  -3.284 -11.318  1.00  0.00     0.309 C 
BRANCH  17  18
HETATM   18  C   UNL     1      10.928  -3.720 -11.975  1.00  0.00     0.049 C 
BRANCH  18  19
HETATM   19  C   UNL     1      11.307  -2.924 -13.244  1.00  0.00    -0.020 C 
HETATM   20  C   UNL     1      11.151  -3.751 -14.519  1.00  0.00     0.009 C 
HETATM   21  C   UNL     1      10.455  -1.655 -13.334  1.00  0.00     0.009 C 
ENDBRANCH  18  19
ENDBRANCH  17  18
BRANCH  17  22
HETATM   22  N   UNL     1       9.752  -3.365  -9.847  1.00  0.00     0.092 N 
HETATM   23  H   UNL     1       8.996  -2.815  -9.427  1.00  0.00     0.313 HD
HETATM   24  H   UNL     1      10.609  -2.889  -9.563  1.00  0.00     0.313 HD
ENDBRANCH  17  22
ENDBRANCH  14  17
ENDBRANCH   1  13
TORSDOF 5
ENDMDL
MODEL 4
REMARK VINA RESULT:      -7.1      4.638      8.167
REMARK  5 active torsions:
REMARK  status: ('A' for Active; 'I' for Inactive)
REMARK    1  A    between atoms: C_2  and  C_4 
REMARK    2  A    between atoms: C_4  and  C_5 
REMARK    3  A    between atoms: C_5  and  C_7 
REMARK    4  A    between atoms: C_5  and  N_6 
REMARK       I    between atoms: C_7  and  N_9 
REMARK    5  A    between atoms: N_9  and  C_10 
ROOT
HETATM    1  C   UNL     1       6.105  -4.764 -13.904  1.00  0.00     0.035 A 
HETATM    2  C   UNL     1       5.030  -4.515 -13.042  1.00  0.00     0.044 A 
HETATM    3  C   UNL     1       3.804  -5.173 -13.181  1.00  0.00     0.006 A 
HETATM    4  C   UNL     1       3.674  -6.087 -14.219  1.00  0.00     0.090 A 
HETATM    5  C   UNL     1       4.718  -6.340 -15.112  1.00  0.00     0.040 A 
HETATM    6  C   UNL     1       5.934  -5.666 -14.958  1.00  0.00     0.032 A 
HETATM    7  O   UNL     1       2.473  -6.790 -14.424  1.00  0.00    -0.275 OA
HETATM    8  C   UNL     1       1.380  -6.582 -13.596  1.00  0.00     0.288 A 
HETATM    9  O   UNL     1       0.319  -7.176 -13.753  1.00  0.00    -0.260 OA
HETATM   10  C   UNL     1       1.537  -5.608 -12.505  1.00  0.00     0.090 A 
HETATM   11  C   UNL     1       2.670  -4.928 -12.284  1.00  0.00    -0.043 A 
HETATM   12  C   UNL     1       2.797  -3.944 -11.155  1.00  0.00     0.049 C 
ENDROOT
BRANCH   1  13
HETATM   13  N   UNL     1       7.350  -4.114 -13.751  1.00  0.00    -0.325 N 
HETATM   14  C   UNL     1       7.791  -3.042 -14.514  1.00  0.00     0.255 C 
HETATM   15  O   UNL     1       7.147  -2.469 -15.392  1.00  0.00    -0.271 OA
HETATM   16  H   UNL     1       7.913  -4.384 -12.950  1.00  0.00     0.169 HD
BRANCH  14  17
HETATM   17  C   UNL     1       9.257  -2.648 -14.239  1.00  0.00     0.309 C 
BRANCH  17  18
HETATM   18  C   UNL     1       9.532  -2.600 -12.725  1.00  0.00     0.049 C 
BRANCH  18  19
HETATM   19  C   UNL     1      10.844  -3.289 -12.289  1.00  0.00    -0.020 C 
HETATM   20  C   UNL     1      12.067  -2.397 -12.495  1.00  0.00     0.009 C 
HETATM   21  C   UNL     1      10.746  -3.713 -10.821  1.00  0.00     0.009 C 
ENDBRANCH  18  19
ENDBRANCH  17  18
BRANCH  17  22
HETATM   22  N   UNL     1       9.474  -1.298 -14.808  1.00  0.00     0.092 N 
HETATM   23  H   UNL     1      10.340  -1.326 -15.355  1.00  0.00     0.313 HD
HETATM   24  H   UNL     1       9.664  -0.637 -14.054  1.00  0.00     0.313 HD
ENDBRANCH  17  22
ENDBRANCH  14  17
ENDBRANCH   1  13
TORSDOF 5
ENDMDL
MODEL 5
REMARK VINA RESULT:      -7.1      3.396      4.681
REMARK  5 active torsions:
REMARK  status: ('A' for Active; 'I' for Inactive)
REMARK    1  A    between atoms: C_2  and  C_4 
REMARK    2  A    between atoms: C_4  and  C_5 
REMARK    3  A    between atoms: C_5  and  C_7 
REMARK    4  A    between atoms: C_5  and  N_6 
REMARK       I    between atoms: C_7  and  N_9 
REMARK    5  A    between atoms: N_9  and  C_10 
ROOT
HETATM    1  C   UNL     1       1.492  -6.153 -11.664  1.00  0.00     0.035 A 
HETATM    2  C   UNL     1       1.012  -7.466 -11.586  1.00  0.00     0.044 A 
HETATM    3  C   UNL     1       0.750  -8.226 -12.730  1.00  0.00     0.006 A 
HETATM    4  C   UNL     1       0.971  -7.632 -13.966  1.00  0.00     0.090 A 
HETATM    5  C   UNL     1       1.425  -6.316 -14.080  1.00  0.00     0.040 A 
HETATM    6  C   UNL     1       1.675  -5.572 -12.923  1.00  0.00     0.032 A 
HETATM    7  O   UNL     1       0.733  -8.333 -15.163  1.00  0.00    -0.275 OA
HETATM    8  C   UNL     1       0.260  -9.636 -15.139  1.00  0.00     0.288 A 
HETATM    9  O   UNL     1       0.038 -10.269 -16.165  1.00  0.00    -0.260 OA
HETATM   10  C   UNL     1       0.029 -10.246 -13.821  1.00  0.00     0.090 A 
HETATM   11  C   UNL     1       0.253  -9.605 -12.665  1.00  0.00    -0.043 A 
HETATM   12  C   UNL     1       0.011 -10.260 -11.335  1.00  0.00     0.049 C 
ENDROOT
BRANCH   1  13
HETATM   13  N   UNL     1       1.775  -5.392 -10.509  1.00  0.00    -0.325 N 
HETATM   14  C   UNL     1       3.047  -5.100 -10.035  1.00  0.00     0.255 C 
HETATM   15  O   UNL     1       4.107  -5.413 -10.576  1.00  0.00    -0.271 OA
HETATM   16  H   UNL     1       0.989  -4.933 -10.057  1.00  0.00     0.169 HD
BRANCH  14  17
HETATM   17  C   UNL     1       3.051  -4.398  -8.662  1.00  0.00     0.309 C 
BRANCH  17  18
HETATM   18  C   UNL     1       2.692  -5.392  -7.542  1.00  0.00     0.049 C 
BRANCH  18  19
HETATM   19  C   UNL     1       3.629  -6.617  -7.448  1.00  0.00    -0.020 C 
HETATM   20  C   UNL     1       4.323  -6.717  -6.091  1.00  0.00     0.009 C 
HETATM   21  C   UNL     1       2.840  -7.898  -7.729  1.00  0.00     0.009 C 
ENDBRANCH  18  19
ENDBRANCH  17  18
BRANCH  17  22
HETATM   22  N   UNL     1       2.026  -3.329  -8.700  1.00  0.00     0.092 N 
HETATM   23  H   UNL     1       1.774  -3.105  -7.732  1.00  0.00     0.313 HD
HETATM   24  H   UNL     1       1.169  -3.694  -9.115  1.00  0.00     0.313 HD
ENDBRANCH  17  22
ENDBRANCH  14  17
ENDBRANCH   1  13
TORSDOF 5
ENDMDL
MODEL 6
REMARK VINA RESULT:      -7.0      4.792      8.735
REMARK  5 active torsions:
REMARK  status: ('A' for Active; 'I' for Inactive)
REMARK    1  A    between atoms: C_2  and  C_4 
REMARK    2  A    between atoms: C_4  and  C_5 
REMARK    3  A    between atoms: C_5  and  C_7 
REMARK    4  A    between atoms: C_5  and  N_6 
REMARK       I    between atoms: C_7  and  N_9 
REMARK    5  A    between atoms: N_9  and  C_10 
ROOT
HETATM    1  C   UNL     1       6.141  -4.889 -14.203  1.00  0.00     0.035 A 
HETATM    2  C   UNL     1       5.122  -4.583 -13.292  1.00  0.00     0.044 A 
HETATM    3  C   UNL     1       3.875  -5.215 -13.340  1.00  0.00     0.006 A 
HETATM    4  C   UNL     1       3.667  -6.161 -14.336  1.00  0.00     0.090 A 
HETATM    5  C   UNL     1       4.653  -6.470 -15.275  1.00  0.00     0.040 A 
HETATM    6  C   UNL     1       5.891  -5.823 -15.213  1.00  0.00     0.032 A 
HETATM    7  O   UNL     1       2.440  -6.839 -14.449  1.00  0.00    -0.275 OA
HETATM    8  C   UNL     1       1.400  -6.575 -13.570  1.00  0.00     0.288 A 
HETATM    9  O   UNL     1       0.318  -7.147 -13.648  1.00  0.00    -0.260 OA
HETATM   10  C   UNL     1       1.640  -5.569 -12.525  1.00  0.00     0.090 A 
HETATM   11  C   UNL     1       2.799  -4.910 -12.391  1.00  0.00    -0.043 A 
HETATM   12  C   UNL     1       3.012  -3.891 -11.308  1.00  0.00     0.049 C 
ENDROOT
BRANCH   1  13
HETATM   13  N   UNL     1       7.408  -4.266 -14.142  1.00  0.00    -0.325 N 
HETATM   14  C   UNL     1       7.774  -3.129 -14.848  1.00  0.00     0.255 C 
HETATM   15  O   UNL     1       7.040  -2.470 -15.584  1.00  0.00    -0.271 OA
HETATM   16  H   UNL     1       8.058  -4.616 -13.445  1.00  0.00     0.169 HD
BRANCH  14  17
HETATM   17  C   UNL     1       9.270  -2.774 -14.718  1.00  0.00     0.309 C 
BRANCH  17  18
HETATM   18  C   UNL     1       9.792  -2.139 -16.021  1.00  0.00     0.049 C 
BRANCH  18  19
HETATM   19  C   UNL     1      10.062  -0.620 -15.931  1.00  0.00    -0.020 C 
HETATM   20  C   UNL     1       9.052   0.200 -16.733  1.00  0.00     0.009 C 
HETATM   21  C   UNL     1      10.052  -0.177 -14.466  1.00  0.00     0.009 C 
ENDBRANCH  18  19
ENDBRANCH  17  18
BRANCH  17  22
HETATM   22  N   UNL     1      10.011  -4.031 -14.468  1.00  0.00     0.092 N 
HETATM   23  H   UNL     1       9.434  -4.806 -14.808  1.00  0.00     0.313 HD
HETATM   24  H   UNL     1      10.090  -4.186 -13.463  1.00  0.00     0.313 HD
ENDBRANCH  17  22
ENDBRANCH  14  17
ENDBRANCH   1  13
TORSDOF 5
ENDMDL
MODEL 7
REMARK VINA RESULT:      -6.8      4.181      5.774
REMARK  5 active torsions:
REMARK  status: ('A' for Active; 'I' for Inactive)
REMARK    1  A    between atoms: C_2  and  C_4 
REMARK    2  A    between atoms: C_4  and  C_5 
REMARK    3  A    between atoms: C_5  and  C_7 
REMARK    4  A    between atoms: C_5  and  N_6 
REMARK       I    between atoms: C_7  and  N_9 
REMARK    5  A    between atoms: N_9  and  C_10 
ROOT
HETATM    1  C   UNL     1       6.907  -4.831 -10.904  1.00  0.00     0.035 A 
HETATM    2  C   UNL     1       8.265  -4.495 -10.958  1.00  0.00     0.044 A 
HETATM    3  C   UNL     1       8.776  -3.637 -11.938  1.00  0.00     0.006 A 
HETATM    4  C   UNL     1       7.888  -3.128 -12.877  1.00  0.00     0.090 A 
HETATM    5  C   UNL     1       6.532  -3.463 -12.866  1.00  0.00     0.040 A 
HETATM    6  C   UNL     1       6.044  -4.327 -11.881  1.00  0.00     0.032 A 
HETATM    7  O   UNL     1       8.324  -2.258 -13.893  1.00  0.00    -0.275 OA
HETATM    8  C   UNL     1       9.658  -1.892 -13.988  1.00  0.00     0.288 A 
HETATM    9  O   UNL     1      10.068  -1.141 -14.866  1.00  0.00    -0.260 OA
HETATM   10  C   UNL     1      10.582  -2.445 -12.987  1.00  0.00     0.090 A 
HETATM   11  C   UNL     1      10.194  -3.271 -12.006  1.00  0.00    -0.043 A 
HETATM   12  C   UNL     1      11.165  -3.813 -10.995  1.00  0.00     0.049 C 
ENDROOT
BRANCH   1  13
HETATM   13  N   UNL     1       6.388  -5.681  -9.902  1.00  0.00    -0.325 N 
HETATM   14  C   UNL     1       5.886  -5.261  -8.678  1.00  0.00     0.255 C 
HETATM   15  O   UNL     1       5.770  -4.093  -8.309  1.00  0.00    -0.271 OA
HETATM   16  H   UNL     1       6.274  -6.661 -10.145  1.00  0.00     0.169 HD
BRANCH  14  17
HETATM   17  C   UNL     1       5.547  -6.420  -7.717  1.00  0.00     0.309 C 
BRANCH  17  18
HETATM   18  C   UNL     1       4.213  -6.153  -6.996  1.00  0.00     0.049 C 
BRANCH  18  19
HETATM   19  C   UNL     1       2.987  -6.053  -7.931  1.00  0.00    -0.020 C 
HETATM   20  C   UNL     1       2.269  -7.391  -8.097  1.00  0.00     0.009 C 
HETATM   21  C   UNL     1       2.014  -4.997  -7.402  1.00  0.00     0.009 C 
ENDBRANCH  18  19
ENDBRANCH  17  18
BRANCH  17  22
HETATM   22  N   UNL     1       6.629  -6.499  -6.708  1.00  0.00     0.092 N 
HETATM   23  H   UNL     1       7.346  -7.136  -7.070  1.00  0.00     0.313 HD
HETATM   24  H   UNL     1       6.276  -6.954  -5.866  1.00  0.00     0.313 HD
ENDBRANCH  17  22
ENDBRANCH  14  17
ENDBRANCH   1  13
TORSDOF 5
ENDMDL
MODEL 8
REMARK VINA RESULT:      -6.8      4.710      7.752
REMARK  5 active torsions:
REMARK  status: ('A' for Active; 'I' for Inactive)
REMARK    1  A    between atoms: C_2  and  C_4 
REMARK    2  A    between atoms: C_4  and  C_5 
REMARK    3  A    between atoms: C_5  and  C_7 
REMARK    4  A    between atoms: C_5  and  N_6 
REMARK       I    between atoms: C_7  and  N_9 
REMARK    5  A    between atoms: N_9  and  C_10 
ROOT
HETATM    1  C   UNL     1       5.891  -4.325 -12.426  1.00  0.00     0.035 A 
HETATM    2  C   UNL     1       5.568  -5.233 -13.442  1.00  0.00     0.044 A 
HETATM    3  C   UNL     1       4.267  -5.716 -13.616  1.00  0.00     0.006 A 
HETATM    4  C   UNL     1       3.289  -5.272 -12.734  1.00  0.00     0.090 A 
HETATM    5  C   UNL     1       3.583  -4.386 -11.695  1.00  0.00     0.040 A 
HETATM    6  C   UNL     1       4.892  -3.921 -11.536  1.00  0.00     0.032 A 
HETATM    7  O   UNL     1       1.958  -5.710 -12.845  1.00  0.00    -0.275 OA
HETATM    8  C   UNL     1       1.586  -6.606 -13.835  1.00  0.00     0.288 A 
HETATM    9  O   UNL     1       0.434  -7.010 -13.952  1.00  0.00    -0.260 OA
HETATM   10  C   UNL     1       2.636  -7.067 -14.756  1.00  0.00     0.090 A 
HETATM   11  C   UNL     1       3.911  -6.662 -14.678  1.00  0.00    -0.043 A 
HETATM   12  C   UNL     1       4.958  -7.150 -15.639  1.00  0.00     0.049 C 
ENDROOT
BRANCH   1  13
HETATM   13  N   UNL     1       7.201  -3.822 -12.263  1.00  0.00    -0.325 N 
HETATM   14  C   UNL     1       8.138  -4.308 -11.362  1.00  0.00     0.255 C 
HETATM   15  O   UNL     1       7.986  -5.275 -10.615  1.00  0.00    -0.271 OA
HETATM   16  H   UNL     1       7.512  -3.127 -12.935  1.00  0.00     0.169 HD
BRANCH  14  17
HETATM   17  C   UNL     1       9.422  -3.457 -11.283  1.00  0.00     0.309 C 
BRANCH  17  18
HETATM   18  C   UNL     1      10.540  -4.083 -12.139  1.00  0.00     0.049 C 
BRANCH  18  19
HETATM   19  C   UNL     1      11.162  -3.126 -13.180  1.00  0.00    -0.020 C 
HETATM   20  C   UNL     1      11.256  -3.757 -14.568  1.00  0.00     0.009 C 
HETATM   21  C   UNL     1      10.348  -1.831 -13.247  1.00  0.00     0.009 C 
ENDBRANCH  18  19
ENDBRANCH  17  18
BRANCH  17  22
HETATM   22  N   UNL     1       9.859  -3.432  -9.869  1.00  0.00     0.092 N 
HETATM   23  H   UNL     1       9.230  -2.803  -9.359  1.00  0.00     0.313 HD
HETATM   24  H   UNL     1      10.777  -2.991  -9.804  1.00  0.00     0.313 HD
ENDBRANCH  17  22
ENDBRANCH  14  17
ENDBRANCH   1  13
TORSDOF 5
ENDMDL
MODEL 9
REMARK VINA RESULT:      -6.7      4.828      9.233
REMARK  5 active torsions:
REMARK  status: ('A' for Active; 'I' for Inactive)
REMARK    1  A    between atoms: C_2  and  C_4 
REMARK    2  A    between atoms: C_4  and  C_5 
REMARK    3  A    between atoms: C_5  and  C_7 
REMARK    4  A    between atoms: C_5  and  N_6 
REMARK       I    between atoms: C_7  and  N_9 
REMARK    5  A    between atoms: N_9  and  C_10 
ROOT
HETATM    1  C   UNL     1       7.341  -3.595 -13.290  1.00  0.00     0.035 A 
HETATM    2  C   UNL     1       6.050  -3.798 -12.786  1.00  0.00     0.044 A 
HETATM    3  C   UNL     1       5.826  -4.180 -11.460  1.00  0.00     0.006 A 
HETATM    4  C   UNL     1       6.936  -4.367 -10.644  1.00  0.00     0.090 A 
HETATM    5  C   UNL     1       8.237  -4.198 -11.122  1.00  0.00     0.040 A 
HETATM    6  C   UNL     1       8.438  -3.822 -12.453  1.00  0.00     0.032 A 
HETATM    7  O   UNL     1       6.792  -4.749  -9.298  1.00  0.00    -0.275 OA
HETATM    8  C   UNL     1       5.535  -4.959  -8.751  1.00  0.00     0.288 A 
HETATM    9  O   UNL     1       5.380  -5.299  -7.583  1.00  0.00    -0.260 OA
HETATM   10  C   UNL     1       4.375  -4.759  -9.632  1.00  0.00     0.090 A 
HETATM   11  C   UNL     1       4.481  -4.390 -10.915  1.00  0.00    -0.043 A 
HETATM   12  C   UNL     1       3.272  -4.190 -11.786  1.00  0.00     0.049 C 
ENDROOT
BRANCH   1  13
HETATM   13  N   UNL     1       7.567  -3.190 -14.624  1.00  0.00    -0.325 N 
HETATM   14  C   UNL     1       7.649  -4.043 -15.716  1.00  0.00     0.255 C 
HETATM   15  O   UNL     1       7.485  -5.262 -15.692  1.00  0.00    -0.271 OA
HETATM   16  H   UNL     1       7.557  -2.191 -14.808  1.00  0.00     0.169 HD
BRANCH  14  17
HETATM   17  C   UNL     1       8.072  -3.339 -17.022  1.00  0.00     0.309 C 
BRANCH  17  18
HETATM   18  C   UNL     1       7.868  -1.817 -16.908  1.00  0.00     0.049 C 
BRANCH  18  19
HETATM   19  C   UNL     1       9.166  -0.986 -17.012  1.00  0.00    -0.020 C 
HETATM   20  C   UNL     1       9.303   0.026 -15.875  1.00  0.00     0.009 C 
HETATM   21  C   UNL     1      10.379  -1.918 -17.034  1.00  0.00     0.009 C 
ENDBRANCH  18  19
ENDBRANCH  17  18
BRANCH  17  22
HETATM   22  N   UNL     1       7.214  -3.857 -18.111  1.00  0.00     0.092 N 
HETATM   23  H   UNL     1       7.398  -3.294 -18.948  1.00  0.00     0.313 HD
HETATM   24  H   UNL     1       6.235  -3.679 -17.888  1.00  0.00     0.313 HD
ENDBRANCH  17  22
ENDBRANCH  14  17
ENDBRANCH   1  13
TORSDOF 5
ENDMDL
