MODEL 1
REMARK VINA RESULT:      -8.8      0.000      0.000
REMARK  13 active torsions:
REMARK  status: ('A' for Active; 'I' for Inactive)
REMARK    1  A    between atoms: C_2  and  C_4 
REMARK    2  A    between atoms: C_4  and  C_5 
REMARK    3  A    between atoms: C_5  and  C_7 
REMARK    4  A    between atoms: C_5  and  N_6 
REMARK       I    between atoms: C_7  and  N_9 
REMARK    5  A    between atoms: N_9  and  C_10 
REMARK    6  A    between atoms: C_10  and  C_11 
REMARK    7  A    between atoms: C_10  and  C_15 
REMARK    8  A    between atoms: C_11  and  C_12 
REMARK       I    between atoms: C_15  and  N_17 
REMARK    9  A    between atoms: N_17  and  C_18 
REMARK   10  A    between atoms: C_18  and  C_19 
REMARK   11  A    between atoms: C_18  and  C_23 
REMARK   12  A    between atoms: C_19  and  C_20 
REMARK       I    between atoms: C_23  and  N_25 
REMARK   13  A    between atoms: N_25  and  C_26 
ROOT
HETATM    1  C   UNL     1       3.811  -6.296  -9.225  1.00  0.00     0.241 C 
HETATM    2  O   UNL     1       3.299  -7.414  -9.181  1.00  0.00    -0.271 OA
HETATM    3  N   UNL     1       3.968  -5.594 -10.390  1.00  0.00    -0.346 N 
HETATM    4  H   UNL     1       4.269  -4.626 -10.333  1.00  0.00     0.163 HD
ENDROOT
BRANCH   3   5
HETATM    5  C   UNL     1       3.584  -5.974 -11.748  1.00  0.00     0.177 C 
BRANCH   5   6
HETATM    6  C   UNL     1       2.392  -5.147 -12.244  1.00  0.00     0.038 C 
BRANCH   6   7
HETATM    7  C   UNL     1       1.308  -5.926 -13.022  1.00  0.00    -0.020 C 
HETATM    8  C   UNL     1       1.684  -5.996 -14.504  1.00  0.00     0.009 C 
HETATM    9  C   UNL     1       1.056  -7.357 -12.535  1.00  0.00     0.009 C 
ENDBRANCH   6   7
ENDBRANCH   5   6
BRANCH   5  10
HETATM   10  C   UNL     1       4.878  -5.769 -12.608  1.00  0.00     0.245 C 
HETATM   11  O   UNL     1       5.796  -6.574 -12.491  1.00  0.00    -0.271 OA
HETATM   12  N   UNL     1       4.908  -4.657 -13.432  1.00  0.00    -0.325 N 
HETATM   13  H   UNL     1       4.176  -3.964 -13.324  1.00  0.00     0.169 HD
BRANCH  12  14
HETATM   14  C   UNL     1       5.964  -4.316 -14.319  1.00  0.00     0.035 A 
HETATM   15  C   UNL     1       7.043  -3.491 -13.958  1.00  0.00     0.044 A 
HETATM   16  C   UNL     1       8.089  -3.196 -14.848  1.00  0.00     0.006 A 
HETATM   17  C   UNL     1       8.017  -3.739 -16.133  1.00  0.00     0.090 A 
HETATM   18  C   UNL     1       9.255  -2.372 -14.491  1.00  0.00    -0.043 A 
HETATM   19  C   UNL     1       6.957  -4.550 -16.528  1.00  0.00     0.040 A 
HETATM   20  O   UNL     1       9.026  -3.504 -17.083  1.00  0.00    -0.275 OA
HETATM   21  C   UNL     1       5.939  -4.851 -15.616  1.00  0.00     0.032 A 
HETATM   22  C   UNL     1      10.166  -2.790 -16.759  1.00  0.00     0.288 A 
HETATM   23  O   UNL     1      11.095  -2.625 -17.546  1.00  0.00    -0.260 OA
HETATM   24  C   UNL     1      10.220  -2.205 -15.407  1.00  0.00     0.090 A 
HETATM   25  C   UNL     1       9.357  -1.746 -13.129  1.00  0.00     0.049 C 
ENDBRANCH  12  14
ENDBRANCH   5  10
ENDBRANCH   3   5
BRANCH   1  26
HETATM   26  C   UNL     1       4.288  -5.544  -7.942  1.00  0.00     0.177 C 
BRANCH  26  27
HETATM   27  N   UNL     1       3.083  -5.205  -7.169  1.00  0.00    -0.346 N 
HETATM   28  C   UNL     1       2.145  -4.276  -7.566  1.00  0.00     0.251 C 
HETATM   29  O   UNL     1       2.198  -3.692  -8.646  1.00  0.00    -0.271 OA
HETATM   30  H   UNL     1       2.938  -5.739  -6.317  1.00  0.00     0.163 HD
BRANCH  28  31
HETATM   31  C   UNL     1       0.983  -4.039  -6.571  1.00  0.00     0.309 C 
BRANCH  31  32
HETATM   32  C   UNL     1      -0.309  -4.775  -6.952  1.00  0.00     0.049 C 
BRANCH  32  33
HETATM   33  C   UNL     1      -1.528  -4.495  -6.047  1.00  0.00    -0.020 C 
HETATM   34  C   UNL     1      -2.739  -3.956  -6.810  1.00  0.00     0.009 C 
HETATM   35  C   UNL     1      -1.912  -5.791  -5.325  1.00  0.00     0.009 C 
ENDBRANCH  32  33
ENDBRANCH  31  32
BRANCH  31  36
HETATM   36  N   UNL     1       0.703  -2.589  -6.481  1.00  0.00     0.092 N 
HETATM   37  H   UNL     1      -0.303  -2.431  -6.473  1.00  0.00     0.313 HD
HETATM   38  H   UNL     1       1.047  -2.142  -7.332  1.00  0.00     0.313 HD
ENDBRANCH  31  36
ENDBRANCH  28  31
ENDBRANCH  26  27
BRANCH  26  39
HETATM   39  C   UNL     1       5.263  -6.404  -7.101  1.00  0.00     0.038 C 
BRANCH  39  40
HETATM   40  C   UNL     1       4.657  -7.272  -5.978  1.00  0.00    -0.020 C 
HETATM   41  C   UNL     1       4.744  -8.780  -6.243  1.00  0.00     0.009 C 
HETATM   42  C   UNL     1       5.299  -6.946  -4.631  1.00  0.00     0.009 C 
ENDBRANCH  39  40
ENDBRANCH  26  39
ENDBRANCH   1  26
TORSDOF 13
ENDMDL
MODEL 2
REMARK VINA RESULT:      -8.6      2.082      5.489
REMARK  13 active torsions:
REMARK  status: ('A' for Active; 'I' for Inactive)
REMARK    1  A    between atoms: C_2  and  C_4 
REMARK    2  A    between atoms: C_4  and  C_5 
REMARK    3  A    between atoms: C_5  and  C_7 
REMARK    4  A    between atoms: C_5  and  N_6 
REMARK       I    between atoms: C_7  and  N_9 
REMARK    5  A    between atoms: N_9  and  C_10 
REMARK    6  A    between atoms: C_10  and  C_11 
REMARK    7  A    between atoms: C_10  and  C_15 
REMARK    8  A    between atoms: C_11  and  C_12 
REMARK       I    between atoms: C_15  and  N_17 
REMARK    9  A    between atoms: N_17  and  C_18 
REMARK   10  A    between atoms: C_18  and  C_19 
REMARK   11  A    between atoms: C_18  and  C_23 
REMARK   12  A    between atoms: C_19  and  C_20 
REMARK       I    between atoms: C_23  and  N_25 
REMARK   13  A    between atoms: N_25  and  C_26 
ROOT
HETATM    1  C   UNL     1       2.559  -5.043  -7.249  1.00  0.00     0.241 C 
HETATM    2  O   UNL     1       2.570  -4.844  -6.036  1.00  0.00    -0.271 OA
HETATM    3  N   UNL     1       3.672  -5.421  -7.951  1.00  0.00    -0.346 N 
HETATM    4  H   UNL     1       3.559  -5.702  -8.920  1.00  0.00     0.163 HD
ENDROOT
BRANCH   3   5
HETATM    5  C   UNL     1       5.027  -5.667  -7.460  1.00  0.00     0.177 C 
BRANCH   5   6
HETATM    6  C   UNL     1       5.322  -7.170  -7.367  1.00  0.00     0.038 C 
BRANCH   6   7
HETATM    7  C   UNL     1       4.772  -7.888  -6.114  1.00  0.00    -0.020 C 
HETATM    8  C   UNL     1       4.899  -9.404  -6.289  1.00  0.00     0.009 C 
HETATM    9  C   UNL     1       5.452  -7.512  -4.794  1.00  0.00     0.009 C 
ENDBRANCH   6   7
ENDBRANCH   5   6
BRANCH   5  10
HETATM   10  C   UNL     1       5.966  -4.915  -8.463  1.00  0.00     0.245 C 
HETATM   11  O   UNL     1       6.932  -4.304  -8.018  1.00  0.00    -0.271 OA
HETATM   12  N   UNL     1       5.618  -4.969  -9.802  1.00  0.00    -0.325 N 
HETATM   13  H   UNL     1       4.710  -5.349 -10.042  1.00  0.00     0.169 HD
BRANCH  12  14
HETATM   14  C   UNL     1       6.357  -4.392 -10.869  1.00  0.00     0.035 A 
HETATM   15  C   UNL     1       7.753  -4.235 -10.849  1.00  0.00     0.044 A 
HETATM   16  C   UNL     1       8.461  -3.689 -11.933  1.00  0.00     0.006 A 
HETATM   17  C   UNL     1       7.722  -3.280 -13.046  1.00  0.00     0.090 A 
HETATM   18  C   UNL     1       9.925  -3.549 -11.964  1.00  0.00    -0.043 A 
HETATM   19  C   UNL     1       6.337  -3.410 -13.095  1.00  0.00     0.040 A 
HETATM   20  O   UNL     1       8.350  -2.734 -14.179  1.00  0.00    -0.275 OA
HETATM   21  C   UNL     1       5.657  -3.980 -12.013  1.00  0.00     0.032 A 
HETATM   22  C   UNL     1       9.728  -2.650 -14.266  1.00  0.00     0.288 A 
HETATM   23  O   UNL     1      10.308  -2.239 -15.268  1.00  0.00    -0.260 OA
HETATM   24  C   UNL     1      10.494  -3.065 -13.077  1.00  0.00     0.090 A 
HETATM   25  C   UNL     1      10.753  -3.950 -10.776  1.00  0.00     0.049 C 
ENDBRANCH  12  14
ENDBRANCH   5  10
ENDBRANCH   3   5
BRANCH   1  26
HETATM   26  C   UNL     1       1.257  -4.933  -8.104  1.00  0.00     0.177 C 
BRANCH  26  27
HETATM   27  N   UNL     1       1.480  -5.714  -9.331  1.00  0.00    -0.346 N 
HETATM   28  C   UNL     1       2.090  -5.217 -10.463  1.00  0.00     0.251 C 
HETATM   29  O   UNL     1       2.569  -4.087 -10.523  1.00  0.00    -0.271 OA
HETATM   30  H   UNL     1       1.197  -6.689  -9.294  1.00  0.00     0.163 HD
BRANCH  28  31
HETATM   31  C   UNL     1       2.172  -6.198 -11.658  1.00  0.00     0.309 C 
BRANCH  31  32
HETATM   32  C   UNL     1       1.302  -5.781 -12.852  1.00  0.00     0.049 C 
BRANCH  32  33
HETATM   33  C   UNL     1       1.960  -5.934 -14.241  1.00  0.00    -0.020 C 
HETATM   34  C   UNL     1       3.487  -5.853 -14.202  1.00  0.00     0.009 C 
HETATM   35  C   UNL     1       1.532  -7.276 -14.842  1.00  0.00     0.009 C 
ENDBRANCH  32  33
ENDBRANCH  31  32
BRANCH  31  36
HETATM   36  N   UNL     1       1.762  -7.549 -11.211  1.00  0.00     0.092 N 
HETATM   37  H   UNL     1       0.984  -7.475 -10.559  1.00  0.00     0.313 HD
HETATM   38  H   UNL     1       2.532  -7.958 -10.680  1.00  0.00     0.313 HD
ENDBRANCH  31  36
ENDBRANCH  28  31
ENDBRANCH  26  27
BRANCH  26  39
HETATM   39  C   UNL     1       0.019  -5.454  -7.333  1.00  0.00     0.038 C 
BRANCH  39  40
HETATM   40  C   UNL     1      -0.719  -4.457  -6.416  1.00  0.00    -0.020 C 
HETATM   41  C   UNL     1      -1.494  -3.372  -7.172  1.00  0.00     0.009 C 
HETATM   42  C   UNL     1      -1.657  -5.190  -5.458  1.00  0.00     0.009 C 
ENDBRANCH  39  40
ENDBRANCH  26  39
ENDBRANCH   1  26
TORSDOF 13
ENDMDL
MODEL 3
REMARK VINA RESULT:      -8.5      0.695      1.613
REMARK  13 active torsions:
REMARK  status: ('A' for Active; 'I' for Inactive)
REMARK    1  A    between atoms: C_2  and  C_4 
REMARK    2  A    between atoms: C_4  and  C_5 
REMARK    3  A    between atoms: C_5  and  C_7 
REMARK    4  A    between atoms: C_5  and  N_6 
REMARK       I    between atoms: C_7  and  N_9 
REMARK    5  A    between atoms: N_9  and  C_10 
REMARK    6  A    between atoms: C_10  and  C_11 
REMARK    7  A    between atoms: C_10  and  C_15 
REMARK    8  A    between atoms: C_11  and  C_12 
REMARK       I    between atoms: C_15  and  N_17 
REMARK    9  A    between atoms: N_17  and  C_18 
REMARK   10  A    between atoms: C_18  and  C_19 
REMARK   11  A    between atoms: C_18  and  C_23 
REMARK   12  A    between atoms: C_19  and  C_20 
REMARK       I    between atoms: C_23  and  N_25 
REMARK   13  A    between atoms: N_25  and  C_26 
ROOT
HETATM    1  C   UNL     1       3.654  -6.240  -9.397  1.00  0.00     0.241 C 
HETATM    2  O   UNL     1       2.941  -7.242  -9.392  1.00  0.00    -0.271 OA
HETATM    3  N   UNL     1       4.024  -5.595 -10.547  1.00  0.00    -0.346 N 
HETATM    4  H   UNL     1       4.495  -4.699 -10.468  1.00  0.00     0.163 HD
ENDROOT
BRANCH   3   5
HETATM    5  C   UNL     1       3.678  -5.916 -11.930  1.00  0.00     0.177 C 
BRANCH   5   6
HETATM    6  C   UNL     1       2.516  -5.050 -12.430  1.00  0.00     0.038 C 
BRANCH   6   7
HETATM    7  C   UNL     1       1.426  -5.787 -13.239  1.00  0.00    -0.020 C 
HETATM    8  C   UNL     1       1.919  -6.033 -14.668  1.00  0.00     0.009 C 
HETATM    9  C   UNL     1       0.980  -7.133 -12.660  1.00  0.00     0.009 C 
ENDBRANCH   6   7
ENDBRANCH   5   6
BRANCH   5  10
HETATM   10  C   UNL     1       5.002  -5.700 -12.740  1.00  0.00     0.245 C 
HETATM   11  O   UNL     1       5.584  -6.683 -13.188  1.00  0.00    -0.271 OA
HETATM   12  N   UNL     1       5.445  -4.395 -12.872  1.00  0.00    -0.325 N 
HETATM   13  H   UNL     1       4.990  -3.680 -12.319  1.00  0.00     0.169 HD
BRANCH  12  14
HETATM   14  C   UNL     1       6.594  -3.984 -13.602  1.00  0.00     0.035 A 
HETATM   15  C   UNL     1       6.777  -4.248 -14.970  1.00  0.00     0.044 A 
HETATM   16  C   UNL     1       7.910  -3.803 -15.671  1.00  0.00     0.006 A 
HETATM   17  C   UNL     1       8.877  -3.094 -14.954  1.00  0.00     0.090 A 
HETATM   18  C   UNL     1       8.116  -4.022 -17.112  1.00  0.00    -0.043 A 
HETATM   19  C   UNL     1       8.733  -2.826 -13.596  1.00  0.00     0.040 A 
HETATM   20  O   UNL     1      10.036  -2.601 -15.580  1.00  0.00    -0.275 OA
HETATM   21  C   UNL     1       7.584  -3.257 -12.924  1.00  0.00     0.032 A 
HETATM   22  C   UNL     1      10.227  -2.733 -16.944  1.00  0.00     0.288 A 
HETATM   23  O   UNL     1      11.196  -2.257 -17.529  1.00  0.00    -0.260 OA
HETATM   24  C   UNL     1       9.210  -3.502 -17.685  1.00  0.00     0.090 A 
HETATM   25  C   UNL     1       7.114  -4.804 -17.913  1.00  0.00     0.049 C 
ENDBRANCH  12  14
ENDBRANCH   5  10
ENDBRANCH   3   5
BRANCH   1  26
HETATM   26  C   UNL     1       4.166  -5.571  -8.082  1.00  0.00     0.177 C 
BRANCH  26  27
HETATM   27  N   UNL     1       2.979  -5.231  -7.281  1.00  0.00    -0.346 N 
HETATM   28  C   UNL     1       2.088  -4.231  -7.606  1.00  0.00     0.251 C 
HETATM   29  O   UNL     1       2.170  -3.573  -8.640  1.00  0.00    -0.271 OA
HETATM   30  H   UNL     1       2.809  -5.818  -6.470  1.00  0.00     0.163 HD
BRANCH  28  31
HETATM   31  C   UNL     1       0.940  -4.010  -6.591  1.00  0.00     0.309 C 
BRANCH  31  32
HETATM   32  C   UNL     1      -0.357  -4.741  -6.967  1.00  0.00     0.049 C 
BRANCH  32  33
HETATM   33  C   UNL     1      -1.570  -4.460  -6.053  1.00  0.00    -0.020 C 
HETATM   34  C   UNL     1      -2.785  -3.918  -6.807  1.00  0.00     0.009 C 
HETATM   35  C   UNL     1      -1.951  -5.756  -5.330  1.00  0.00     0.009 C 
ENDBRANCH  32  33
ENDBRANCH  31  32
BRANCH  31  36
HETATM   36  N   UNL     1       0.661  -2.562  -6.474  1.00  0.00     0.092 N 
HETATM   37  H   UNL     1      -0.012  -2.399  -5.727  1.00  0.00     0.313 HD
HETATM   38  H   UNL     1       0.202  -2.253  -7.333  1.00  0.00     0.313 HD
ENDBRANCH  31  36
ENDBRANCH  28  31
ENDBRANCH  26  27
BRANCH  26  39
HETATM   39  C   UNL     1       5.116  -6.506  -7.295  1.00  0.00     0.038 C 
BRANCH  39  40
HETATM   40  C   UNL     1       4.513  -7.312  -6.126  1.00  0.00    -0.020 C 
HETATM   41  C   UNL     1       4.344  -8.807  -6.423  1.00  0.00     0.009 C 
HETATM   42  C   UNL     1       5.339  -7.129  -4.854  1.00  0.00     0.009 C 
ENDBRANCH  39  40
ENDBRANCH  26  39
ENDBRANCH   1  26
TORSDOF 13
ENDMDL
MODEL 4
REMARK VINA RESULT:      -8.5      1.950      5.071
REMARK  13 active torsions:
REMARK  status: ('A' for Active; 'I' for Inactive)
REMARK    1  A    between atoms: C_2  and  C_4 
REMARK    2  A    between atoms: C_4  and  C_5 
REMARK    3  A    between atoms: C_5  and  C_7 
REMARK    4  A    between atoms: C_5  and  N_6 
REMARK       I    between atoms: C_7  and  N_9 
REMARK    5  A    between atoms: N_9  and  C_10 
REMARK    6  A    between atoms: C_10  and  C_11 
REMARK    7  A    between atoms: C_10  and  C_15 
REMARK    8  A    between atoms: C_11  and  C_12 
REMARK       I    between atoms: C_15  and  N_17 
REMARK    9  A    between atoms: N_17  and  C_18 
REMARK   10  A    between atoms: C_18  and  C_19 
REMARK   11  A    between atoms: C_18  and  C_23 
REMARK   12  A    between atoms: C_19  and  C_20 
REMARK       I    between atoms: C_23  and  N_25 
REMARK   13  A    between atoms: N_25  and  C_26 
ROOT
HETATM    1  C   UNL     1       3.079  -5.043  -7.578  1.00  0.00     0.241 C 
HETATM    2  O   UNL     1       3.092  -5.320  -6.380  1.00  0.00    -0.271 OA
HETATM    3  N   UNL     1       4.213  -4.996  -8.343  1.00  0.00    -0.346 N 
HETATM    4  H   UNL     1       4.113  -4.898  -9.349  1.00  0.00     0.163 HD
ENDROOT
BRANCH   3   5
HETATM    5  C   UNL     1       5.597  -5.253  -7.949  1.00  0.00     0.177 C 
BRANCH   5   6
HETATM    6  C   UNL     1       5.879  -6.757  -7.849  1.00  0.00     0.038 C 
BRANCH   6   7
HETATM    7  C   UNL     1       6.329  -7.268  -6.462  1.00  0.00    -0.020 C 
HETATM    8  C   UNL     1       6.817  -6.093  -5.611  1.00  0.00     0.009 C 
HETATM    9  C   UNL     1       5.256  -8.012  -5.661  1.00  0.00     0.009 C 
ENDBRANCH   6   7
ENDBRANCH   5   6
BRANCH   5  10
HETATM   10  C   UNL     1       6.469  -4.532  -9.033  1.00  0.00     0.245 C 
HETATM   11  O   UNL     1       7.408  -3.834  -8.664  1.00  0.00    -0.271 OA
HETATM   12  N   UNL     1       6.095  -4.712 -10.354  1.00  0.00    -0.325 N 
HETATM   13  H   UNL     1       5.205  -5.161 -10.539  1.00  0.00     0.169 HD
BRANCH  12  14
HETATM   14  C   UNL     1       6.775  -4.183 -11.483  1.00  0.00     0.035 A 
HETATM   15  C   UNL     1       8.164  -3.972 -11.522  1.00  0.00     0.044 A 
HETATM   16  C   UNL     1       8.813  -3.475 -12.664  1.00  0.00     0.006 A 
HETATM   17  C   UNL     1       8.024  -3.173 -13.776  1.00  0.00     0.090 A 
HETATM   18  C   UNL     1      10.269  -3.281 -12.756  1.00  0.00    -0.043 A 
HETATM   19  C   UNL     1       6.644  -3.359 -13.768  1.00  0.00     0.040 A 
HETATM   20  O   UNL     1       8.592  -2.683 -14.965  1.00  0.00    -0.275 OA
HETATM   21  C   UNL     1       6.023  -3.879 -12.628  1.00  0.00     0.032 A 
HETATM   22  C   UNL     1       9.963  -2.552 -15.105  1.00  0.00     0.288 A 
HETATM   23  O   UNL     1      10.493  -2.190 -16.152  1.00  0.00    -0.260 OA
HETATM   24  C   UNL     1      10.782  -2.854 -13.918  1.00  0.00     0.090 A 
HETATM   25  C   UNL     1      11.151  -3.567 -11.573  1.00  0.00     0.049 C 
ENDBRANCH  12  14
ENDBRANCH   5  10
ENDBRANCH   3   5
BRANCH   1  26
HETATM   26  C   UNL     1       1.755  -4.768  -8.359  1.00  0.00     0.177 C 
BRANCH  26  27
HETATM   27  N   UNL     1       1.936  -5.305  -9.716  1.00  0.00    -0.346 N 
HETATM   28  C   UNL     1       2.523  -4.609 -10.751  1.00  0.00     0.251 C 
HETATM   29  O   UNL     1       3.014  -3.491 -10.611  1.00  0.00    -0.271 OA
HETATM   30  H   UNL     1       1.641  -6.267  -9.856  1.00  0.00     0.163 HD
BRANCH  28  31
HETATM   31  C   UNL     1       2.560  -5.348 -12.111  1.00  0.00     0.309 C 
BRANCH  31  32
HETATM   32  C   UNL     1       1.250  -6.072 -12.451  1.00  0.00     0.049 C 
BRANCH  32  33
HETATM   33  C   UNL     1       1.359  -7.603 -12.623  1.00  0.00    -0.020 C 
HETATM   34  C   UNL     1       0.854  -8.387 -11.410  1.00  0.00     0.009 C 
HETATM   35  C   UNL     1       0.565  -8.014 -13.867  1.00  0.00     0.009 C 
ENDBRANCH  32  33
ENDBRANCH  31  32
BRANCH  31  36
HETATM   36  N   UNL     1       3.667  -6.331 -12.104  1.00  0.00     0.092 N 
HETATM   37  H   UNL     1       4.542  -5.863 -11.878  1.00  0.00     0.313 HD
HETATM   38  H   UNL     1       3.781  -6.693 -13.052  1.00  0.00     0.313 HD
ENDBRANCH  31  36
ENDBRANCH  28  31
ENDBRANCH  26  27
BRANCH  26  39
HETATM   39  C   UNL     1       0.533  -5.418  -7.664  1.00  0.00     0.038 C 
BRANCH  39  40
HETATM   40  C   UNL     1      -0.543  -4.473  -7.089  1.00  0.00    -0.020 C 
HETATM   41  C   UNL     1      -1.251  -5.021  -5.844  1.00  0.00     0.009 C 
HETATM   42  C   UNL     1       0.046  -3.098  -6.784  1.00  0.00     0.009 C 
ENDBRANCH  39  40
ENDBRANCH  26  39
ENDBRANCH   1  26
TORSDOF 13
ENDMDL
MODEL 5
REMARK VINA RESULT:      -8.3      1.716      4.366
REMARK  13 active torsions:
REMARK  status: ('A' for Active; 'I' for Inactive)
REMARK    1  A    between atoms: C_2  and  C_4 
REMARK    2  A    between atoms: C_4  and  C_5 
REMARK    3  A    between atoms: C_5  and  C_7 
REMARK    4  A    between atoms: C_5  and  N_6 
REMARK       I    between atoms: C_7  and  N_9 
REMARK    5  A    between atoms: N_9  and  C_10 
REMARK    6  A    between atoms: C_10  and  C_11 
REMARK    7  A    between atoms: C_10  and  C_15 
REMARK    8  A    between atoms: C_11  and  C_12 
REMARK       I    between atoms: C_15  and  N_17 
REMARK    9  A    between atoms: N_17  and  C_18 
REMARK   10  A    between atoms: C_18  and  C_19 
REMARK   11  A    between atoms: C_18  and  C_23 
REMARK   12  A    between atoms: C_19  and  C_20 
REMARK       I    between atoms: C_23  and  N_25 
REMARK   13  A    between atoms: N_25  and  C_26 
ROOT
HETATM    1  C   UNL     1       4.028  -5.158  -9.692  1.00  0.00     0.241 C 
HETATM    2  O   UNL     1       4.461  -4.007  -9.687  1.00  0.00    -0.271 OA
HETATM    3  N   UNL     1       4.788  -6.241  -9.342  1.00  0.00    -0.346 N 
HETATM    4  H   UNL     1       4.327  -7.140  -9.235  1.00  0.00     0.163 HD
ENDROOT
BRANCH   3   5
HETATM    5  C   UNL     1       6.182  -6.280  -8.903  1.00  0.00     0.177 C 
BRANCH   5   6
HETATM    6  C   UNL     1       6.532  -7.636  -8.277  1.00  0.00     0.038 C 
BRANCH   6   7
HETATM    7  C   UNL     1       6.367  -7.733  -6.744  1.00  0.00    -0.020 C 
HETATM    8  C   UNL     1       6.518  -6.344  -6.118  1.00  0.00     0.009 C 
HETATM    9  C   UNL     1       5.034  -8.318  -6.267  1.00  0.00     0.009 C 
ENDBRANCH   6   7
ENDBRANCH   5   6
BRANCH   5  10
HETATM   10  C   UNL     1       7.020  -5.958 -10.187  1.00  0.00     0.245 C 
HETATM   11  O   UNL     1       7.292  -6.874 -10.957  1.00  0.00    -0.271 OA
HETATM   12  N   UNL     1       7.428  -4.645 -10.352  1.00  0.00    -0.325 N 
HETATM   13  H   UNL     1       7.303  -4.008  -9.575  1.00  0.00     0.169 HD
BRANCH  12  14
HETATM   14  C   UNL     1       8.155  -4.141 -11.463  1.00  0.00     0.035 A 
HETATM   15  C   UNL     1       7.658  -4.139 -12.778  1.00  0.00     0.044 A 
HETATM   16  C   UNL     1       8.388  -3.605 -13.852  1.00  0.00     0.006 A 
HETATM   17  C   UNL     1       9.655  -3.084 -13.578  1.00  0.00     0.090 A 
HETATM   18  C   UNL     1       7.883  -3.547 -15.233  1.00  0.00    -0.043 A 
HETATM   19  C   UNL     1      10.183  -3.082 -12.290  1.00  0.00     0.040 A 
HETATM   20  O   UNL     1      10.449  -2.520 -14.592  1.00  0.00    -0.275 OA
HETATM   21  C   UNL     1       9.427  -3.595 -11.231  1.00  0.00     0.032 A 
HETATM   22  C   UNL     1       9.976  -2.391 -15.886  1.00  0.00     0.288 A 
HETATM   23  O   UNL     1      10.619  -1.843 -16.778  1.00  0.00    -0.260 OA
HETATM   24  C   UNL     1       8.647  -2.963 -16.167  1.00  0.00     0.090 A 
HETATM   25  C   UNL     1       6.537  -4.122 -15.576  1.00  0.00     0.049 C 
ENDBRANCH  12  14
ENDBRANCH   5  10
ENDBRANCH   3   5
BRANCH   1  26
HETATM   26  C   UNL     1       2.545  -5.492 -10.051  1.00  0.00     0.177 C 
BRANCH  26  27
HETATM   27  N   UNL     1       1.702  -4.878  -9.013  1.00  0.00    -0.346 N 
HETATM   28  C   UNL     1       1.855  -5.101  -7.662  1.00  0.00     0.251 C 
HETATM   29  O   UNL     1       2.763  -5.785  -7.195  1.00  0.00    -0.271 OA
HETATM   30  H   UNL     1       1.002  -4.219  -9.342  1.00  0.00     0.163 HD
BRANCH  28  31
HETATM   31  C   UNL     1       0.821  -4.393  -6.751  1.00  0.00     0.309 C 
BRANCH  31  32
HETATM   32  C   UNL     1      -0.633  -4.608  -7.195  1.00  0.00     0.049 C 
BRANCH  32  33
HETATM   33  C   UNL     1      -1.706  -4.323  -6.122  1.00  0.00    -0.020 C 
HETATM   34  C   UNL     1      -3.034  -3.839  -6.706  1.00  0.00     0.009 C 
HETATM   35  C   UNL     1      -1.939  -5.601  -5.309  1.00  0.00     0.009 C 
ENDBRANCH  32  33
ENDBRANCH  31  32
BRANCH  31  36
HETATM   36  N   UNL     1       1.107  -2.942  -6.722  1.00  0.00     0.092 N 
HETATM   37  H   UNL     1       2.011  -2.759  -7.154  1.00  0.00     0.313 HD
HETATM   38  H   UNL     1       1.202  -2.653  -5.747  1.00  0.00     0.313 HD
ENDBRANCH  31  36
ENDBRANCH  28  31
ENDBRANCH  26  27
BRANCH  26  39
HETATM   39  C   UNL     1       2.163  -4.967 -11.457  1.00  0.00     0.038 C 
BRANCH  39  40
HETATM   40  C   UNL     1       2.616  -5.801 -12.674  1.00  0.00    -0.020 C 
HETATM   41  C   UNL     1       1.590  -5.848 -13.812  1.00  0.00     0.009 C 
HETATM   42  C   UNL     1       3.957  -5.300 -13.208  1.00  0.00     0.009 C 
ENDBRANCH  39  40
ENDBRANCH  26  39
ENDBRANCH   1  26
TORSDOF 13
ENDMDL
MODEL 6
REMARK VINA RESULT:      -8.3      3.055      9.205
REMARK  13 active torsions:
REMARK  status: ('A' for Active; 'I' for Inactive)
REMARK    1  A    between atoms: C_2  and  C_4 
REMARK    2  A    between atoms: C_4  and  C_5 
REMARK    3  A    between atoms: C_5  and  C_7 
REMARK    4  A    between atoms: C_5  and  N_6 
REMARK       I    between atoms: C_7  and  N_9 
REMARK    5  A    between atoms: N_9  and  C_10 
REMARK    6  A    between atoms: C_10  and  C_11 
REMARK    7  A    between atoms: C_10  and  C_15 
REMARK    8  A    between atoms: C_11  and  C_12 
REMARK       I    between atoms: C_15  and  N_17 
REMARK    9  A    between atoms: N_17  and  C_18 
REMARK   10  A    between atoms: C_18  and  C_19 
REMARK   11  A    between atoms: C_18  and  C_23 
REMARK   12  A    between atoms: C_19  and  C_20 
REMARK       I    between atoms: C_23  and  N_25 
REMARK   13  A    between atoms: N_25  and  C_26 
ROOT
HETATM    1  C   UNL     1       7.650  -2.940 -15.426  1.00  0.00     0.241 C 
HETATM    2  O   UNL     1       7.171  -2.363 -16.401  1.00  0.00    -0.271 OA
HETATM    3  N   UNL     1       7.171  -4.134 -14.958  1.00  0.00    -0.346 N 
HETATM    4  H   UNL     1       7.700  -4.618 -14.239  1.00  0.00     0.163 HD
ENDROOT
BRANCH   3   5
HETATM    5  C   UNL     1       6.070  -4.947 -15.475  1.00  0.00     0.177 C 
BRANCH   5   6
HETATM    6  C   UNL     1       6.570  -6.307 -15.979  1.00  0.00     0.038 C 
BRANCH   6   7
HETATM    7  C   UNL     1       7.929  -6.295 -16.712  1.00  0.00    -0.020 C 
HETATM    8  C   UNL     1       8.518  -7.708 -16.732  1.00  0.00     0.009 C 
HETATM    9  C   UNL     1       7.889  -5.785 -18.157  1.00  0.00     0.009 C 
ENDBRANCH   6   7
ENDBRANCH   5   6
BRANCH   5  10
HETATM   10  C   UNL     1       5.058  -5.063 -14.285  1.00  0.00     0.245 C 
HETATM   11  O   UNL     1       4.051  -5.746 -14.434  1.00  0.00    -0.271 OA
HETATM   12  N   UNL     1       5.362  -4.351 -13.137  1.00  0.00    -0.325 N 
HETATM   13  H   UNL     1       6.122  -3.683 -13.179  1.00  0.00     0.169 HD
BRANCH  12  14
HETATM   14  C   UNL     1       4.601  -4.357 -11.937  1.00  0.00     0.035 A 
HETATM   15  C   UNL     1       4.993  -5.043 -10.774  1.00  0.00     0.044 A 
HETATM   16  C   UNL     1       4.234  -5.006  -9.593  1.00  0.00     0.006 A 
HETATM   17  C   UNL     1       3.047  -4.271  -9.611  1.00  0.00     0.090 A 
HETATM   18  C   UNL     1       4.634  -5.675  -8.345  1.00  0.00    -0.043 A 
HETATM   19  C   UNL     1       2.623  -3.590 -10.748  1.00  0.00     0.040 A 
HETATM   20  O   UNL     1       2.232  -4.170  -8.469  1.00  0.00    -0.275 OA
HETATM   21  C   UNL     1       3.408  -3.620 -11.905  1.00  0.00     0.032 A 
HETATM   22  C   UNL     1       2.613  -4.732  -7.263  1.00  0.00     0.288 A 
HETATM   23  O   UNL     1       1.956  -4.606  -6.233  1.00  0.00    -0.260 OA
HETATM   24  C   UNL     1       3.857  -5.523  -7.264  1.00  0.00     0.090 A 
HETATM   25  C   UNL     1       5.890  -6.499  -8.292  1.00  0.00     0.049 C 
ENDBRANCH  12  14
ENDBRANCH   5  10
ENDBRANCH   3   5
BRANCH   1  26
HETATM   26  C   UNL     1       8.889  -2.388 -14.653  1.00  0.00     0.177 C 
BRANCH  26  27
HETATM   27  N   UNL     1       9.092  -3.260 -13.485  1.00  0.00    -0.346 N 
HETATM   28  C   UNL     1       9.732  -2.868 -12.329  1.00  0.00     0.251 C 
HETATM   29  O   UNL     1      10.134  -1.722 -12.143  1.00  0.00    -0.271 OA
HETATM   30  H   UNL     1       8.683  -4.188 -13.548  1.00  0.00     0.163 HD
BRANCH  28  31
HETATM   31  C   UNL     1       9.881  -3.966 -11.248  1.00  0.00     0.309 C 
BRANCH  31  32
HETATM   32  C   UNL     1       8.622  -4.828 -11.073  1.00  0.00     0.049 C 
BRANCH  32  33
HETATM   33  C   UNL     1       8.801  -6.335 -11.354  1.00  0.00    -0.020 C 
HETATM   34  C   UNL     1       7.859  -6.867 -12.435  1.00  0.00     0.009 C 
HETATM   35  C   UNL     1      10.254  -6.588 -11.770  1.00  0.00     0.009 C 
ENDBRANCH  32  33
ENDBRANCH  31  32
BRANCH  31  36
HETATM   36  N   UNL     1      10.218  -3.336  -9.952  1.00  0.00     0.092 N 
HETATM   37  H   UNL     1      11.011  -2.707 -10.070  1.00  0.00     0.313 HD
HETATM   38  H   UNL     1      10.535  -4.066  -9.312  1.00  0.00     0.313 HD
ENDBRANCH  31  36
ENDBRANCH  28  31
ENDBRANCH  26  27
BRANCH  26  39
HETATM   39  C   UNL     1      10.154  -2.355 -15.545  1.00  0.00     0.038 C 
BRANCH  39  40
HETATM   40  C   UNL     1      10.415  -3.575 -16.453  1.00  0.00    -0.020 C 
HETATM   41  C   UNL     1      10.767  -3.209 -17.900  1.00  0.00     0.009 C 
HETATM   42  C   UNL     1      11.508  -4.466 -15.866  1.00  0.00     0.009 C 
ENDBRANCH  39  40
ENDBRANCH  26  39
ENDBRANCH   1  26
TORSDOF 13
ENDMDL
MODEL 7
REMARK VINA RESULT:      -8.2      4.638     10.717
REMARK  13 active torsions:
REMARK  status: ('A' for Active; 'I' for Inactive)
REMARK    1  A    between atoms: C_2  and  C_4 
REMARK    2  A    between atoms: C_4  and  C_5 
REMARK    3  A    between atoms: C_5  and  C_7 
REMARK    4  A    between atoms: C_5  and  N_6 
REMARK       I    between atoms: C_7  and  N_9 
REMARK    5  A    between atoms: N_9  and  C_10 
REMARK    6  A    between atoms: C_10  and  C_11 
REMARK    7  A    between atoms: C_10  and  C_15 
REMARK    8  A    between atoms: C_11  and  C_12 
REMARK       I    between atoms: C_15  and  N_17 
REMARK    9  A    between atoms: N_17  and  C_18 
REMARK   10  A    between atoms: C_18  and  C_19 
REMARK   11  A    between atoms: C_18  and  C_23 
REMARK   12  A    between atoms: C_19  and  C_20 
REMARK       I    between atoms: C_23  and  N_25 
REMARK   13  A    between atoms: N_25  and  C_26 
ROOT
HETATM    1  C   UNL     1      10.536  -3.723 -15.909  1.00  0.00     0.241 C 
HETATM    2  O   UNL     1      11.640  -4.187 -15.629  1.00  0.00    -0.271 OA
HETATM    3  N   UNL     1       9.519  -3.621 -14.998  1.00  0.00    -0.346 N 
HETATM    4  H   UNL     1       8.686  -3.102 -15.260  1.00  0.00     0.163 HD
ENDROOT
BRANCH   3   5
HETATM    5  C   UNL     1       9.510  -4.002 -13.586  1.00  0.00     0.177 C 
BRANCH   5   6
HETATM    6  C   UNL     1       9.531  -2.768 -12.676  1.00  0.00     0.038 C 
BRANCH   6   7
HETATM    7  C   UNL     1      10.783  -2.611 -11.784  1.00  0.00    -0.020 C 
HETATM    8  C   UNL     1      10.986  -3.878 -10.949  1.00  0.00     0.009 C 
HETATM    9  C   UNL     1      12.089  -2.331 -12.533  1.00  0.00     0.009 C 
ENDBRANCH   6   7
ENDBRANCH   5   6
BRANCH   5  10
HETATM   10  C   UNL     1       8.223  -4.877 -13.410  1.00  0.00     0.245 C 
HETATM   11  O   UNL     1       8.197  -5.710 -12.509  1.00  0.00    -0.271 OA
HETATM   12  N   UNL     1       7.198  -4.667 -14.317  1.00  0.00    -0.325 N 
HETATM   13  H   UNL     1       7.388  -4.085 -15.124  1.00  0.00     0.169 HD
BRANCH  12  14
HETATM   14  C   UNL     1       5.938  -5.323 -14.303  1.00  0.00     0.035 A 
HETATM   15  C   UNL     1       4.894  -4.978 -13.428  1.00  0.00     0.044 A 
HETATM   16  C   UNL     1       3.648  -5.625 -13.458  1.00  0.00     0.006 A 
HETATM   17  C   UNL     1       3.477  -6.655 -14.387  1.00  0.00     0.090 A 
HETATM   18  C   UNL     1       2.518  -5.262 -12.588  1.00  0.00    -0.043 A 
HETATM   19  C   UNL     1       4.494  -7.031 -15.260  1.00  0.00     0.040 A 
HETATM   20  O   UNL     1       2.258  -7.349 -14.494  1.00  0.00    -0.275 OA
HETATM   21  C   UNL     1       5.718  -6.355 -15.229  1.00  0.00     0.032 A 
HETATM   22  C   UNL     1       1.158  -6.988 -13.736  1.00  0.00     0.288 A 
HETATM   23  O   UNL     1       0.062  -7.530 -13.854  1.00  0.00    -0.260 OA
HETATM   24  C   UNL     1       1.358  -5.914 -12.746  1.00  0.00     0.090 A 
HETATM   25  C   UNL     1       2.670  -4.180 -11.557  1.00  0.00     0.049 C 
ENDBRANCH  12  14
ENDBRANCH   5  10
ENDBRANCH   3   5
BRANCH   1  26
HETATM   26  C   UNL     1      10.202  -3.153 -17.324  1.00  0.00     0.177 C 
BRANCH  26  27
HETATM   27  N   UNL     1      10.080  -4.304 -18.233  1.00  0.00    -0.346 N 
HETATM   28  C   UNL     1       9.133  -5.297 -18.100  1.00  0.00     0.251 C 
HETATM   29  O   UNL     1       8.254  -5.272 -17.242  1.00  0.00    -0.271 OA
HETATM   30  H   UNL     1      10.718  -4.314 -19.024  1.00  0.00     0.163 HD
BRANCH  28  31
HETATM   31  C   UNL     1       9.223  -6.442 -19.138  1.00  0.00     0.309 C 
BRANCH  31  32
HETATM   32  C   UNL     1       9.705  -7.772 -18.542  1.00  0.00     0.049 C 
BRANCH  32  33
HETATM   33  C   UNL     1       8.593  -8.758 -18.126  1.00  0.00    -0.020 C 
HETATM   34  C   UNL     1       8.306  -8.750 -16.623  1.00  0.00     0.009 C 
HETATM   35  C   UNL     1       7.314  -8.410 -18.894  1.00  0.00     0.009 C 
ENDBRANCH  32  33
ENDBRANCH  31  32
BRANCH  31  36
HETATM   36  N   UNL     1      10.138  -6.043 -20.230  1.00  0.00     0.092 N 
HETATM   37  H   UNL     1      10.871  -5.439 -19.863  1.00  0.00     0.313 HD
HETATM   38  H   UNL     1       9.615  -5.470 -20.895  1.00  0.00     0.313 HD
ENDBRANCH  31  36
ENDBRANCH  28  31
ENDBRANCH  26  27
BRANCH  26  39
HETATM   39  C   UNL     1       8.900  -2.315 -17.313  1.00  0.00     0.038 C 
BRANCH  39  40
HETATM   40  C   UNL     1       9.039  -0.783 -17.437  1.00  0.00    -0.020 C 
HETATM   41  C   UNL     1       7.838  -0.102 -18.102  1.00  0.00     0.009 C 
HETATM   42  C   UNL     1       9.303  -0.149 -16.072  1.00  0.00     0.009 C 
ENDBRANCH  39  40
ENDBRANCH  26  39
ENDBRANCH   1  26
TORSDOF 13
ENDMDL
MODEL 8
REMARK VINA RESULT:      -8.0      1.868      2.533
REMARK  13 active torsions:
REMARK  status: ('A' for Active; 'I' for Inactive)
REMARK    1  A    between atoms: C_2  and  C_4 
REMARK    2  A    between atoms: C_4  and  C_5 
REMARK    3  A    between atoms: C_5  and  C_7 
REMARK    4  A    between atoms: C_5  and  N_6 
REMARK       I    between atoms: C_7  and  N_9 
REMARK    5  A    between atoms: N_9  and  C_10 
REMARK    6  A    between atoms: C_10  and  C_11 
REMARK    7  A    between atoms: C_10  and  C_15 
REMARK    8  A    between atoms: C_11  and  C_12 
REMARK       I    between atoms: C_15  and  N_17 
REMARK    9  A    between atoms: N_17  and  C_18 
REMARK   10  A    between atoms: C_18  and  C_19 
REMARK   11  A    between atoms: C_18  and  C_23 
REMARK   12  A    between atoms: C_19  and  C_20 
REMARK       I    between atoms: C_23  and  N_25 
REMARK   13  A    between atoms: N_25  and  C_26 
ROOT
HETATM    1  C   UNL     1       3.564  -7.324  -9.814  1.00  0.00     0.241 C 
HETATM    2  O   UNL     1       4.692  -7.591 -10.223  1.00  0.00    -0.271 OA
HETATM    3  N   UNL     1       2.579  -6.822 -10.622  1.00  0.00    -0.346 N 
HETATM    4  H   UNL     1       1.636  -6.757 -10.250  1.00  0.00     0.163 HD
ENDROOT
BRANCH   3   5
HETATM    5  C   UNL     1       2.630  -6.520 -12.051  1.00  0.00     0.177 C 
BRANCH   5   6
HETATM    6  C   UNL     1       1.248  -6.128 -12.588  1.00  0.00     0.038 C 
BRANCH   6   7
HETATM    7  C   UNL     1       0.735  -6.950 -13.792  1.00  0.00    -0.020 C 
HETATM    8  C   UNL     1       1.786  -6.948 -14.905  1.00  0.00     0.009 C 
HETATM    9  C   UNL     1       0.383  -8.409 -13.484  1.00  0.00     0.009 C 
ENDBRANCH   6   7
ENDBRANCH   5   6
BRANCH   5  10
HETATM   10  C   UNL     1       3.692  -5.375 -12.186  1.00  0.00     0.245 C 
HETATM   11  O   UNL     1       3.376  -4.238 -11.852  1.00  0.00    -0.271 OA
HETATM   12  N   UNL     1       4.924  -5.728 -12.708  1.00  0.00    -0.325 N 
HETATM   13  H   UNL     1       5.023  -6.651 -13.114  1.00  0.00     0.169 HD
BRANCH  12  14
HETATM   14  C   UNL     1       6.032  -4.853 -12.870  1.00  0.00     0.035 A 
HETATM   15  C   UNL     1       6.394  -4.281 -14.102  1.00  0.00     0.044 A 
HETATM   16  C   UNL     1       7.476  -3.395 -14.226  1.00  0.00     0.006 A 
HETATM   17  C   UNL     1       8.210  -3.106 -13.073  1.00  0.00     0.090 A 
HETATM   18  C   UNL     1       7.858  -2.745 -15.490  1.00  0.00    -0.043 A 
HETATM   19  C   UNL     1       7.887  -3.664 -11.839  1.00  0.00     0.040 A 
HETATM   20  O   UNL     1       9.302  -2.221 -13.104  1.00  0.00    -0.275 OA
HETATM   21  C   UNL     1       6.789  -4.524 -11.736  1.00  0.00     0.032 A 
HETATM   22  C   UNL     1       9.645  -1.544 -14.262  1.00  0.00     0.288 A 
HETATM   23  O   UNL     1      10.550  -0.715 -14.304  1.00  0.00    -0.260 OA
HETATM   24  C   UNL     1       8.876  -1.873 -15.475  1.00  0.00     0.090 A 
HETATM   25  C   UNL     1       7.112  -3.051 -16.759  1.00  0.00     0.049 C 
ENDBRANCH  12  14
ENDBRANCH   5  10
ENDBRANCH   3   5
BRANCH   1  26
HETATM   26  C   UNL     1       3.127  -7.580  -8.336  1.00  0.00     0.177 C 
BRANCH  26  27
HETATM   27  N   UNL     1       2.180  -6.513  -7.976  1.00  0.00    -0.346 N 
HETATM   28  C   UNL     1       2.555  -5.275  -7.501  1.00  0.00     0.251 C 
HETATM   29  O   UNL     1       3.729  -4.925  -7.401  1.00  0.00    -0.271 OA
HETATM   30  H   UNL     1       1.199  -6.716  -8.142  1.00  0.00     0.163 HD
BRANCH  28  31
HETATM   31  C   UNL     1       1.390  -4.324  -7.133  1.00  0.00     0.309 C 
BRANCH  31  32
HETATM   32  C   UNL     1       0.014  -5.004  -7.159  1.00  0.00     0.049 C 
BRANCH  32  33
HETATM   33  C   UNL     1      -1.051  -4.390  -6.226  1.00  0.00    -0.020 C 
HETATM   34  C   UNL     1      -2.104  -3.564  -6.966  1.00  0.00     0.009 C 
HETATM   35  C   UNL     1      -1.737  -5.522  -5.452  1.00  0.00     0.009 C 
ENDBRANCH  32  33
ENDBRANCH  31  32
BRANCH  31  36
HETATM   36  N   UNL     1       1.379  -3.177  -8.069  1.00  0.00     0.092 N 
HETATM   37  H   UNL     1       0.427  -2.996  -8.382  1.00  0.00     0.313 HD
HETATM   38  H   UNL     1       1.901  -3.442  -8.907  1.00  0.00     0.313 HD
ENDBRANCH  31  36
ENDBRANCH  28  31
ENDBRANCH  26  27
BRANCH  26  39
HETATM   39  C   UNL     1       2.480  -8.976  -8.163  1.00  0.00     0.038 C 
BRANCH  39  40
HETATM   40  C   UNL     1       3.403 -10.140  -7.744  1.00  0.00    -0.020 C 
HETATM   41  C   UNL     1       4.204  -9.869  -6.466  1.00  0.00     0.009 C 
HETATM   42  C   UNL     1       2.609 -11.436  -7.590  1.00  0.00     0.009 C 
ENDBRANCH  39  40
ENDBRANCH  26  39
ENDBRANCH   1  26
TORSDOF 13
ENDMDL
MODEL 9
REMARK VINA RESULT:      -7.9      3.066      5.358
REMARK  13 active torsions:
REMARK  status: ('A' for Active; 'I' for Inactive)
REMARK    1  A    between atoms: C_2  and  C_4 
REMARK    2  A    between atoms: C_4  and  C_5 
REMARK    3  A    between atoms: C_5  and  C_7 
REMARK    4  A    between atoms: C_5  and  N_6 
REMARK       I    between atoms: C_7  and  N_9 
REMARK    5  A    between atoms: N_9  and  C_10 
REMARK    6  A    between atoms: C_10  and  C_11 
REMARK    7  A    between atoms: C_10  and  C_15 
REMARK    8  A    between atoms: C_11  and  C_12 
REMARK       I    between atoms: C_15  and  N_17 
REMARK    9  A    between atoms: N_17  and  C_18 
REMARK   10  A    between atoms: C_18  and  C_19 
REMARK   11  A    between atoms: C_18  and  C_23 
REMARK   12  A    between atoms: C_19  and  C_20 
REMARK       I    between atoms: C_23  and  N_25 
REMARK   13  A    between atoms: N_25  and  C_26 
ROOT
HETATM    1  C   UNL     1       6.789  -6.911  -9.236  1.00  0.00     0.241 C 
HETATM    2  O   UNL     1       7.313  -7.539  -8.317  1.00  0.00    -0.271 OA
HETATM    3  N   UNL     1       7.405  -6.705 -10.442  1.00  0.00    -0.346 N 
HETATM    4  H   UNL     1       6.862  -6.301 -11.198  1.00  0.00     0.163 HD
ENDROOT
BRANCH   3   5
HETATM    5  C   UNL     1       8.723  -7.155 -10.888  1.00  0.00     0.177 C 
BRANCH   5   6
HETATM    6  C   UNL     1       8.654  -8.561 -11.498  1.00  0.00     0.038 C 
BRANCH   6   7
HETATM    7  C   UNL     1       9.628  -9.602 -10.902  1.00  0.00    -0.020 C 
HETATM    8  C   UNL     1      10.977  -9.519 -11.621  1.00  0.00     0.009 C 
HETATM    9  C   UNL     1       9.891  -9.466  -9.398  1.00  0.00     0.009 C 
ENDBRANCH   6   7
ENDBRANCH   5   6
BRANCH   5  10
HETATM   10  C   UNL     1       9.202  -6.064 -11.905  1.00  0.00     0.245 C 
HETATM   11  O   UNL     1      10.074  -6.358 -12.716  1.00  0.00    -0.271 OA
HETATM   12  N   UNL     1       8.619  -4.813 -11.796  1.00  0.00    -0.325 N 
HETATM   13  H   UNL     1       8.042  -4.626 -10.985  1.00  0.00     0.169 HD
BRANCH  12  14
HETATM   14  C   UNL     1       8.881  -3.704 -12.646  1.00  0.00     0.035 A 
HETATM   15  C   UNL     1       8.337  -3.570 -13.934  1.00  0.00     0.044 A 
HETATM   16  C   UNL     1       8.591  -2.447 -14.740  1.00  0.00     0.006 A 
HETATM   17  C   UNL     1       9.431  -1.458 -14.223  1.00  0.00     0.090 A 
HETATM   18  C   UNL     1       8.004  -2.251 -16.075  1.00  0.00    -0.043 A 
HETATM   19  C   UNL     1       9.998  -1.565 -12.956  1.00  0.00     0.040 A 
HETATM   20  O   UNL     1       9.730  -0.296 -14.956  1.00  0.00    -0.275 OA
HETATM   21  C   UNL     1       9.710  -2.680 -12.162  1.00  0.00     0.032 A 
HETATM   22  C   UNL     1       9.143  -0.052 -16.186  1.00  0.00     0.288 A 
HETATM   23  O   UNL     1       9.331   0.983 -16.819  1.00  0.00    -0.260 OA
HETATM   24  C   UNL     1       8.275  -1.113 -16.728  1.00  0.00     0.090 A 
HETATM   25  C   UNL     1       7.118  -3.304 -16.678  1.00  0.00     0.049 C 
ENDBRANCH  12  14
ENDBRANCH   5  10
ENDBRANCH   3   5
BRANCH   1  26
HETATM   26  C   UNL     1       5.344  -6.329  -9.136  1.00  0.00     0.177 C 
BRANCH  26  27
HETATM   27  N   UNL     1       5.046  -5.690 -10.427  1.00  0.00    -0.346 N 
HETATM   28  C   UNL     1       4.248  -4.575 -10.572  1.00  0.00     0.251 C 
HETATM   29  O   UNL     1       3.766  -3.969  -9.618  1.00  0.00    -0.271 OA
HETATM   30  H   UNL     1       5.508  -6.092 -11.238  1.00  0.00     0.163 HD
BRANCH  28  31
HETATM   31  C   UNL     1       4.026  -4.103 -12.030  1.00  0.00     0.309 C 
BRANCH  31  32
HETATM   32  C   UNL     1       3.692  -5.246 -12.999  1.00  0.00     0.049 C 
BRANCH  32  33
HETATM   33  C   UNL     1       2.194  -5.430 -13.323  1.00  0.00    -0.020 C 
HETATM   34  C   UNL     1       1.942  -6.062 -14.692  1.00  0.00     0.009 C 
HETATM   35  C   UNL     1       1.558  -6.298 -12.232  1.00  0.00     0.009 C 
ENDBRANCH  32  33
ENDBRANCH  31  32
BRANCH  31  36
HETATM   36  N   UNL     1       5.240  -3.404 -12.509  1.00  0.00     0.092 N 
HETATM   37  H   UNL     1       5.216  -2.430 -12.213  1.00  0.00     0.313 HD
HETATM   38  H   UNL     1       5.218  -3.385 -13.530  1.00  0.00     0.313 HD
ENDBRANCH  31  36
ENDBRANCH  28  31
ENDBRANCH  26  27
BRANCH  26  39
HETATM   39  C   UNL     1       4.304  -7.429  -8.810  1.00  0.00     0.038 C 
BRANCH  39  40
HETATM   40  C   UNL     1       3.289  -7.137  -7.684  1.00  0.00    -0.020 C 
HETATM   41  C   UNL     1       3.722  -6.016  -6.732  1.00  0.00     0.009 C 
HETATM   42  C   UNL     1       1.912  -6.820  -8.263  1.00  0.00     0.009 C 
ENDBRANCH  39  40
ENDBRANCH  26  39
ENDBRANCH   1  26
TORSDOF 13
ENDMDL
