MODEL 1
REMARK VINA RESULT:      -6.5      0.000      0.000
REMARK  Name = Gly-AMC_min.pdb
REMARK  4 active torsions:
REMARK  status: ('A' for Active; 'I' for Inactive)
REMARK    1  A    between atoms: C1_1  and  C2_2
REMARK    2  A    between atoms: C9_11  and  N1_13
REMARK    3  A    between atoms: C11_14  and  C12_16
REMARK    4  A    between atoms: C12_16  and  N2_17
REMARK                            x       y       z     vdW  Elec       q    Type
REMARK                         _______ _______ _______ _____ _____    ______ ____
ROOT
ATOM      1  C1  UNL     1       6.710  -3.563 -14.277  0.00  0.00    +0.045 C 
ATOM      2  C2  UNL     1       7.029  -3.970 -12.867  0.00  0.00    -0.033 A 
ATOM      3  C3  UNL     1       8.292  -4.160 -12.462  0.00  0.00    +0.096 A 
ATOM      4  C4  UNL     1       8.652  -4.557 -11.090  0.00  0.00    +0.337 A 
ATOM      5  O1  UNL     1       9.822  -4.709 -10.770  0.00  0.00    -0.245 OA
ATOM      6  O2  UNL     1       7.606  -4.755 -10.201  0.00  0.00    -0.422 OA
ATOM      7  C5  UNL     1       6.268  -4.550 -10.590  0.00  0.00    +0.141 A 
ATOM      8  C6  UNL     1       5.948  -4.157 -11.893  0.00  0.00    +0.021 A 
ATOM      9  C7  UNL     1       4.599  -3.956 -12.190  0.00  0.00    +0.013 A 
ATOM     10  C8  UNL     1       3.617  -4.118 -11.206  0.00  0.00    +0.024 A 
ATOM     11  C9  UNL     1       3.955  -4.494  -9.901  0.00  0.00    +0.037 A 
ATOM     12  C10 UNL     1       5.293  -4.745  -9.600  0.00  0.00    +0.070 A 
ENDROOT
BRANCH  11  13
ATOM     13  N1  UNL     1       2.979  -4.652  -8.895  0.00  0.00    -0.284 N 
ATOM     14  C11 UNL     1       2.289  -3.606  -8.300  0.00  0.00    +0.231 C 
ATOM     15  O3  UNL     1       2.557  -2.412  -8.419  0.00  0.00    -0.274 OA
ATOM     16  H8  UNL     1       2.922  -5.544  -8.414  0.00  0.00    +0.155 HD
BRANCH  14  17
ATOM     17  C12 UNL     1       1.130  -4.059  -7.411  0.00  0.00    +0.175 C 
BRANCH  17  18
ATOM     18  N2  UNL     1       0.685  -2.964  -6.543  0.00  0.00    -0.322 NA
ATOM     19  H11 UNL     1       1.406  -2.814  -5.832  0.00  0.00    +0.119 HD
ATOM     20  H12 UNL     1       0.680  -2.104  -7.093  0.00  0.00    +0.119 HD
ENDBRANCH  17  18
ENDBRANCH  14  17
ENDBRANCH  11  13
TORSDOF 3
ENDMDL
MODEL 2
REMARK VINA RESULT:      -6.2      3.445      4.713
REMARK  Name = Gly-AMC_min.pdb
REMARK  4 active torsions:
REMARK  status: ('A' for Active; 'I' for Inactive)
REMARK    1  A    between atoms: C1_1  and  C2_2
REMARK    2  A    between atoms: C9_11  and  N1_13
REMARK    3  A    between atoms: C11_14  and  C12_16
REMARK    4  A    between atoms: C12_16  and  N2_17
REMARK                            x       y       z     vdW  Elec       q    Type
REMARK                         _______ _______ _______ _____ _____    ______ ____
ROOT
ATOM      1  C1  UNL     1       4.793  -8.400  -7.992  0.00  0.00    +0.045 C 
ATOM      2  C2  UNL     1       4.696  -6.902  -8.044  0.00  0.00    -0.033 A 
ATOM      3  C3  UNL     1       5.785  -6.134  -8.184  0.00  0.00    +0.096 A 
ATOM      4  C4  UNL     1       5.737  -4.663  -8.240  0.00  0.00    +0.337 A 
ATOM      5  O1  UNL     1       6.762  -4.009  -8.377  0.00  0.00    -0.245 OA
ATOM      6  O2  UNL     1       4.488  -4.072  -8.122  0.00  0.00    -0.422 OA
ATOM      7  C5  UNL     1       3.322  -4.851  -7.989  0.00  0.00    +0.141 A 
ATOM      8  C6  UNL     1       3.386  -6.246  -7.953  0.00  0.00    +0.021 A 
ATOM      9  C7  UNL     1       2.182  -6.942  -7.839  0.00  0.00    +0.013 A 
ATOM     10  C8  UNL     1       0.961  -6.259  -7.792  0.00  0.00    +0.024 A 
ATOM     11  C9  UNL     1       0.912  -4.861  -7.847  0.00  0.00    +0.037 A 
ATOM     12  C10 UNL     1       2.109  -4.149  -7.913  0.00  0.00    +0.070 A 
ENDROOT
BRANCH  11  13
ATOM     13  N1  UNL     1      -0.310  -4.157  -7.810  0.00  0.00    -0.284 N 
ATOM     14  C11 UNL     1      -1.100  -4.015  -6.679  0.00  0.00    +0.231 C 
ATOM     15  O3  UNL     1      -0.954  -4.627  -5.622  0.00  0.00    -0.274 OA
ATOM     16  H8  UNL     1      -0.760  -3.924  -8.690  0.00  0.00    +0.155 HD
BRANCH  14  17
ATOM     17  C12 UNL     1      -2.247  -3.019  -6.850  0.00  0.00    +0.175 C 
BRANCH  17  18
ATOM     18  N2  UNL     1      -1.869  -1.700  -6.329  0.00  0.00    -0.322 NA
ATOM     19  H11 UNL     1      -2.638  -1.361  -5.745  0.00  0.00    +0.119 HD
ATOM     20  H12 UNL     1      -1.088  -1.826  -5.683  0.00  0.00    +0.119 HD
ENDBRANCH  17  18
ENDBRANCH  14  17
ENDBRANCH  11  13
TORSDOF 3
ENDMDL
MODEL 3
REMARK VINA RESULT:      -6.2      4.139      6.899
REMARK  Name = Gly-AMC_min.pdb
REMARK  4 active torsions:
REMARK  status: ('A' for Active; 'I' for Inactive)
REMARK    1  A    between atoms: C1_1  and  C2_2
REMARK    2  A    between atoms: C9_11  and  N1_13
REMARK    3  A    between atoms: C11_14  and  C12_16
REMARK    4  A    between atoms: C12_16  and  N2_17
REMARK                            x       y       z     vdW  Elec       q    Type
REMARK                         _______ _______ _______ _____ _____    ______ ____
ROOT
ATOM      1  C1  UNL     1       2.013  -6.461 -13.551  0.00  0.00    +0.045 C 
ATOM      2  C2  UNL     1       2.825  -5.423 -12.831  0.00  0.00    -0.033 A 
ATOM      3  C3  UNL     1       2.418  -4.898 -11.667  0.00  0.00    +0.096 A 
ATOM      4  C4  UNL     1       3.181  -3.880 -10.926  0.00  0.00    +0.337 A 
ATOM      5  O1  UNL     1       2.767  -3.440  -9.862  0.00  0.00    -0.245 OA
ATOM      6  O2  UNL     1       4.369  -3.449 -11.497  0.00  0.00    -0.422 OA
ATOM      7  C5  UNL     1       4.833  -3.990 -12.713  0.00  0.00    +0.141 A 
ATOM      8  C6  UNL     1       4.102  -4.967 -13.393  0.00  0.00    +0.021 A 
ATOM      9  C7  UNL     1       4.643  -5.464 -14.580  0.00  0.00    +0.013 A 
ATOM     10  C8  UNL     1       5.884  -5.014 -15.045  0.00  0.00    +0.024 A 
ATOM     11  C9  UNL     1       6.612  -4.047 -14.342  0.00  0.00    +0.037 A 
ATOM     12  C10 UNL     1       6.064  -3.506 -13.181  0.00  0.00    +0.070 A 
ENDROOT
BRANCH  11  13
ATOM     13  N1  UNL     1       7.869  -3.589 -14.792  0.00  0.00    -0.284 N 
ATOM     14  C11 UNL     1       8.060  -2.445 -15.553  0.00  0.00    +0.231 C 
ATOM     15  O3  UNL     1       7.173  -1.789 -16.096  0.00  0.00    -0.274 OA
ATOM     16  H8  UNL     1       8.657  -4.228 -14.756  0.00  0.00    +0.155 HD
BRANCH  14  17
ATOM     17  C12 UNL     1       9.528  -2.049 -15.710  0.00  0.00    +0.175 C 
BRANCH  17  18
ATOM     18  N2  UNL     1       9.669  -0.589 -15.749  0.00  0.00    -0.322 NA
ATOM     19  H11 UNL     1      10.051  -0.286 -14.849  0.00  0.00    +0.119 HD
ATOM     20  H12 UNL     1      10.395  -0.358 -16.430  0.00  0.00    +0.119 HD
ENDBRANCH  17  18
ENDBRANCH  14  17
ENDBRANCH  11  13
TORSDOF 3
ENDMDL
MODEL 4
REMARK VINA RESULT:      -6.2      3.506      4.553
REMARK  Name = Gly-AMC_min.pdb
REMARK  4 active torsions:
REMARK  status: ('A' for Active; 'I' for Inactive)
REMARK    1  A    between atoms: C1_1  and  C2_2
REMARK    2  A    between atoms: C9_11  and  N1_13
REMARK    3  A    between atoms: C11_14  and  C12_16
REMARK    4  A    between atoms: C12_16  and  N2_17
REMARK                            x       y       z     vdW  Elec       q    Type
REMARK                         _______ _______ _______ _____ _____    ______ ____
ROOT
ATOM      1  C1  UNL     1       5.088  -5.313 -14.849  0.00  0.00    +0.045 C 
ATOM      2  C2  UNL     1       3.773  -5.834 -14.347  0.00  0.00    -0.033 A 
ATOM      3  C3  UNL     1       2.949  -6.535 -15.139  0.00  0.00    +0.096 A 
ATOM      4  C4  UNL     1       1.650  -7.066 -14.690  0.00  0.00    +0.337 A 
ATOM      5  O1  UNL     1       0.940  -7.706 -15.452  0.00  0.00    -0.245 OA
ATOM      6  O2  UNL     1       1.282  -6.795 -13.380  0.00  0.00    -0.422 OA
ATOM      7  C5  UNL     1       2.131  -6.074 -12.518  0.00  0.00    +0.141 A 
ATOM      8  C6  UNL     1       3.366  -5.592 -12.958  0.00  0.00    +0.021 A 
ATOM      9  C7  UNL     1       4.155  -4.905 -12.033  0.00  0.00    +0.013 A 
ATOM     10  C8  UNL     1       3.726  -4.737 -10.712  0.00  0.00    +0.024 A 
ATOM     11  C9  UNL     1       2.494  -5.242 -10.281  0.00  0.00    +0.037 A 
ATOM     12  C10 UNL     1       1.673  -5.888 -11.204  0.00  0.00    +0.070 A 
ENDROOT
BRANCH  11  13
ATOM     13  N1  UNL     1       2.051  -5.089  -8.950  0.00  0.00    -0.284 N 
ATOM     14  C11 UNL     1       1.950  -3.873  -8.291  0.00  0.00    +0.231 C 
ATOM     15  O3  UNL     1       2.402  -2.802  -8.691  0.00  0.00    -0.274 OA
ATOM     16  H8  UNL     1       2.009  -5.913  -8.358  0.00  0.00    +0.155 HD
BRANCH  14  17
ATOM     17  C12 UNL     1       1.229  -3.960  -6.946  0.00  0.00    +0.175 C 
BRANCH  17  18
ATOM     18  N2  UNL     1       0.681  -2.653  -6.567  0.00  0.00    -0.322 NA
ATOM     19  H11 UNL     1       0.071  -2.792  -5.756  0.00  0.00    +0.119 HD
ATOM     20  H12 UNL     1       1.447  -2.076  -6.219  0.00  0.00    +0.119 HD
ENDBRANCH  17  18
ENDBRANCH  14  17
ENDBRANCH  11  13
TORSDOF 3
ENDMDL
MODEL 5
REMARK VINA RESULT:      -6.0      3.831      5.627
REMARK  Name = Gly-AMC_min.pdb
REMARK  4 active torsions:
REMARK  status: ('A' for Active; 'I' for Inactive)
REMARK    1  A    between atoms: C1_1  and  C2_2
REMARK    2  A    between atoms: C9_11  and  N1_13
REMARK    3  A    between atoms: C11_14  and  C12_16
REMARK    4  A    between atoms: C12_16  and  N2_17
REMARK                            x       y       z     vdW  Elec       q    Type
REMARK                         _______ _______ _______ _____ _____    ______ ____
ROOT
ATOM      1  C1  UNL     1       9.965  -3.734 -17.669  0.00  0.00    +0.045 C 
ATOM      2  C2  UNL     1       9.602  -2.713 -16.628  0.00  0.00    -0.033 A 
ATOM      3  C3  UNL     1       9.597  -1.402 -16.905  0.00  0.00    +0.096 A 
ATOM      4  C4  UNL     1       9.248  -0.366 -15.918  0.00  0.00    +0.337 A 
ATOM      5  O1  UNL     1       9.252   0.817 -16.226  0.00  0.00    -0.245 OA
ATOM      6  O2  UNL     1       8.930  -0.801 -14.640  0.00  0.00    -0.422 OA
ATOM      7  C5  UNL     1       8.911  -2.173 -14.320  0.00  0.00    +0.141 A 
ATOM      8  C6  UNL     1       9.231  -3.141 -15.275  0.00  0.00    +0.021 A 
ATOM      9  C7  UNL     1       9.168  -4.479 -14.880  0.00  0.00    +0.013 A 
ATOM     10  C8  UNL     1       8.772  -4.825 -13.583  0.00  0.00    +0.024 A 
ATOM     11  C9  UNL     1       8.438  -3.843 -12.642  0.00  0.00    +0.037 A 
ATOM     12  C10 UNL     1       8.541  -2.501 -13.006  0.00  0.00    +0.070 A 
ENDROOT
BRANCH  11  13
ATOM     13  N1  UNL     1       8.028  -4.175 -11.333  0.00  0.00    -0.284 N 
ATOM     14  C11 UNL     1       6.706  -4.325 -10.940  0.00  0.00    +0.231 C 
ATOM     15  O3  UNL     1       5.721  -4.010 -11.604  0.00  0.00    -0.274 OA
ATOM     16  H8  UNL     1       8.702  -4.087 -10.580  0.00  0.00    +0.155 HD
BRANCH  14  17
ATOM     17  C12 UNL     1       6.545  -4.909  -9.536  0.00  0.00    +0.175 C 
BRANCH  17  18
ATOM     18  N2  UNL     1       6.915  -3.919  -8.519  0.00  0.00    -0.322 NA
ATOM     19  H11 UNL     1       7.933  -3.816  -8.536  0.00  0.00    +0.119 HD
ATOM     20  H12 UNL     1       6.557  -3.010  -8.815  0.00  0.00    +0.119 HD
ENDBRANCH  17  18
ENDBRANCH  14  17
ENDBRANCH  11  13
TORSDOF 3
ENDMDL
MODEL 6
REMARK VINA RESULT:      -6.0      2.380      3.800
REMARK  Name = Gly-AMC_min.pdb
REMARK  4 active torsions:
REMARK  status: ('A' for Active; 'I' for Inactive)
REMARK    1  A    between atoms: C1_1  and  C2_2
REMARK    2  A    between atoms: C9_11  and  N1_13
REMARK    3  A    between atoms: C11_14  and  C12_16
REMARK    4  A    between atoms: C12_16  and  N2_17
REMARK                            x       y       z     vdW  Elec       q    Type
REMARK                         _______ _______ _______ _____ _____    ______ ____
ROOT
ATOM      1  C1  UNL     1       6.434  -6.921  -8.554  0.00  0.00    +0.045 C 
ATOM      2  C2  UNL     1       5.605  -5.910  -9.292  0.00  0.00    -0.033 A 
ATOM      3  C3  UNL     1       6.080  -5.264 -10.367  0.00  0.00    +0.096 A 
ATOM      4  C4  UNL     1       5.303  -4.267 -11.122  0.00  0.00    +0.337 A 
ATOM      5  O1  UNL     1       5.782  -3.712 -12.101  0.00  0.00    -0.245 OA
ATOM      6  O2  UNL     1       4.024  -3.990 -10.662  0.00  0.00    -0.422 OA
ATOM      7  C5  UNL     1       3.489  -4.661  -9.544  0.00  0.00    +0.141 A 
ATOM      8  C6  UNL     1       4.237  -5.616  -8.851  0.00  0.00    +0.021 A 
ATOM      9  C7  UNL     1       3.624  -6.249  -7.768  0.00  0.00    +0.013 A 
ATOM     10  C8  UNL     1       2.302  -5.950  -7.417  0.00  0.00    +0.024 A 
ATOM     11  C9  UNL     1       1.561  -5.004  -8.133  0.00  0.00    +0.037 A 
ATOM     12  C10 UNL     1       2.173  -4.328  -9.188  0.00  0.00    +0.070 A 
ENDROOT
BRANCH  11  13
ATOM     13  N1  UNL     1       0.224  -4.697  -7.800  0.00  0.00    -0.284 N 
ATOM     14  C11 UNL     1      -0.166  -3.586  -7.066  0.00  0.00    +0.231 C 
ATOM     15  O3  UNL     1       0.586  -2.834  -6.451  0.00  0.00    -0.274 OA
ATOM     16  H8  UNL     1      -0.477  -5.424  -7.901  0.00  0.00    +0.155 HD
BRANCH  14  17
ATOM     17  C12 UNL     1      -1.679  -3.365  -7.042  0.00  0.00    +0.175 C 
BRANCH  17  18
ATOM     18  N2  UNL     1      -2.008  -2.117  -6.347  0.00  0.00    -0.322 NA
ATOM     19  H11 UNL     1      -1.551  -1.349  -6.846  0.00  0.00    +0.119 HD
ATOM     20  H12 UNL     1      -3.008  -1.942  -6.463  0.00  0.00    +0.119 HD
ENDBRANCH  17  18
ENDBRANCH  14  17
ENDBRANCH  11  13
TORSDOF 3
ENDMDL
MODEL 7
REMARK VINA RESULT:      -6.0      2.674      3.747
REMARK  Name = Gly-AMC_min.pdb
REMARK  4 active torsions:
REMARK  status: ('A' for Active; 'I' for Inactive)
REMARK    1  A    between atoms: C1_1  and  C2_2
REMARK    2  A    between atoms: C9_11  and  N1_13
REMARK    3  A    between atoms: C11_14  and  C12_16
REMARK    4  A    between atoms: C12_16  and  N2_17
REMARK                            x       y       z     vdW  Elec       q    Type
REMARK                         _______ _______ _______ _____ _____    ______ ____
ROOT
ATOM      1  C1  UNL     1       7.106  -4.685 -17.685  0.00  0.00    +0.045 C 
ATOM      2  C2  UNL     1       7.476  -3.913 -16.451  0.00  0.00    -0.033 A 
ATOM      3  C3  UNL     1       8.462  -3.006 -16.462  0.00  0.00    +0.096 A 
ATOM      4  C4  UNL     1       8.858  -2.225 -15.277  0.00  0.00    +0.337 A 
ATOM      5  O1  UNL     1       9.760  -1.403 -15.343  0.00  0.00    -0.245 OA
ATOM      6  O2  UNL     1       8.167  -2.478 -14.101  0.00  0.00    -0.422 OA
ATOM      7  C5  UNL     1       7.116  -3.415 -14.059  0.00  0.00    +0.141 A 
ATOM      8  C6  UNL     1       6.745  -4.134 -15.198  0.00  0.00    +0.021 A 
ATOM      9  C7  UNL     1       5.679  -5.028 -15.075  0.00  0.00    +0.013 A 
ATOM     10  C8  UNL     1       4.999  -5.168 -13.859  0.00  0.00    +0.024 A 
ATOM     11  C9  UNL     1       5.371  -4.427 -12.732  0.00  0.00    +0.037 A 
ATOM     12  C10 UNL     1       6.463  -3.565 -12.826  0.00  0.00    +0.070 A 
ENDROOT
BRANCH  11  13
ATOM     13  N1  UNL     1       4.690  -4.549 -11.502  0.00  0.00    -0.284 N 
ATOM     14  C11 UNL     1       3.544  -3.844 -11.167  0.00  0.00    +0.231 C 
ATOM     15  O3  UNL     1       3.077  -2.896 -11.795  0.00  0.00    -0.274 OA
ATOM     16  H8  UNL     1       5.168  -5.002 -10.730  0.00  0.00    +0.155 HD
BRANCH  14  17
ATOM     17  C12 UNL     1       2.879  -4.328  -9.878  0.00  0.00    +0.175 C 
BRANCH  17  18
ATOM     18  N2  UNL     1       2.281  -3.203  -9.151  0.00  0.00    -0.322 NA
ATOM     19  H11 UNL     1       2.520  -3.306  -8.161  0.00  0.00    +0.119 HD
ATOM     20  H12 UNL     1       2.754  -2.347  -9.444  0.00  0.00    +0.119 HD
ENDBRANCH  17  18
ENDBRANCH  14  17
ENDBRANCH  11  13
TORSDOF 3
ENDMDL
MODEL 8
REMARK VINA RESULT:      -6.0      3.193      4.261
REMARK  Name = Gly-AMC_min.pdb
REMARK  4 active torsions:
REMARK  status: ('A' for Active; 'I' for Inactive)
REMARK    1  A    between atoms: C1_1  and  C2_2
REMARK    2  A    between atoms: C9_11  and  N1_13
REMARK    3  A    between atoms: C11_14  and  C12_16
REMARK    4  A    between atoms: C12_16  and  N2_17
REMARK                            x       y       z     vdW  Elec       q    Type
REMARK                         _______ _______ _______ _____ _____    ______ ____
ROOT
ATOM      1  C1  UNL     1       6.569  -5.049  -9.724  0.00  0.00    +0.045 C 
ATOM      2  C2  UNL     1       5.810  -5.567  -8.536  0.00  0.00    -0.033 A 
ATOM      3  C3  UNL     1       6.409  -6.304  -7.590  0.00  0.00    +0.096 A 
ATOM      4  C4  UNL     1       5.706  -6.832  -6.408  0.00  0.00    +0.337 A 
ATOM      5  O1  UNL     1       6.302  -7.494  -5.570  0.00  0.00    -0.245 OA
ATOM      6  O2  UNL     1       4.352  -6.549  -6.307  0.00  0.00    -0.422 OA
ATOM      7  C5  UNL     1       3.695  -5.765  -7.276  0.00  0.00    +0.141 A 
ATOM      8  C6  UNL     1       4.384  -5.260  -8.382  0.00  0.00    +0.021 A 
ATOM      9  C7  UNL     1       3.663  -4.475  -9.284  0.00  0.00    +0.013 A 
ATOM     10  C8  UNL     1       2.311  -4.189  -9.063  0.00  0.00    +0.024 A 
ATOM     11  C9  UNL     1       1.640  -4.687  -7.941  0.00  0.00    +0.037 A 
ATOM     12  C10 UNL     1       2.333  -5.512  -7.055  0.00  0.00    +0.070 A 
ENDROOT
BRANCH  11  13
ATOM     13  N1  UNL     1       0.280  -4.401  -7.698  0.00  0.00    -0.284 N 
ATOM     14  C11 UNL     1      -0.176  -3.294  -6.997  0.00  0.00    +0.231 C 
ATOM     15  O3  UNL     1       0.523  -2.527  -6.337  0.00  0.00    -0.274 OA
ATOM     16  H8  UNL     1      -0.402  -5.139  -7.842  0.00  0.00    +0.155 HD
BRANCH  14  17
ATOM     17  C12 UNL     1      -1.690  -3.097  -7.074  0.00  0.00    +0.175 C 
BRANCH  17  18
ATOM     18  N2  UNL     1      -2.092  -1.888  -6.348  0.00  0.00    -0.322 NA
ATOM     19  H11 UNL     1      -3.106  -1.785  -6.446  0.00  0.00    +0.119 HD
ATOM     20  H12 UNL     1      -1.944  -2.052  -5.351  0.00  0.00    +0.119 HD
ENDBRANCH  17  18
ENDBRANCH  14  17
ENDBRANCH  11  13
TORSDOF 3
ENDMDL
MODEL 9
REMARK VINA RESULT:      -6.0      4.429      5.361
REMARK  Name = Gly-AMC_min.pdb
REMARK  4 active torsions:
REMARK  status: ('A' for Active; 'I' for Inactive)
REMARK    1  A    between atoms: C1_1  and  C2_2
REMARK    2  A    between atoms: C9_11  and  N1_13
REMARK    3  A    between atoms: C11_14  and  C12_16
REMARK    4  A    between atoms: C12_16  and  N2_17
REMARK                            x       y       z     vdW  Elec       q    Type
REMARK                         _______ _______ _______ _____ _____    ______ ____
ROOT
ATOM      1  C1  UNL     1       5.926  -5.162  -7.968  0.00  0.00    +0.045 C 
ATOM      2  C2  UNL     1       4.717  -6.052  -7.931  0.00  0.00    -0.033 A 
ATOM      3  C3  UNL     1       4.831  -7.388  -7.929  0.00  0.00    +0.096 A 
ATOM      4  C4  UNL     1       3.675  -8.299  -7.893  0.00  0.00    +0.337 A 
ATOM      5  O1  UNL     1       3.835  -9.511  -7.885  0.00  0.00    -0.245 OA
ATOM      6  O2  UNL     1       2.417  -7.715  -7.878  0.00  0.00    -0.422 OA
ATOM      7  C5  UNL     1       2.262  -6.315  -7.864  0.00  0.00    +0.141 A 
ATOM      8  C6  UNL     1       3.372  -5.466  -7.883  0.00  0.00    +0.021 A 
ATOM      9  C7  UNL     1       3.131  -4.092  -7.847  0.00  0.00    +0.013 A 
ATOM     10  C8  UNL     1       1.825  -3.596  -7.767  0.00  0.00    +0.024 A 
ATOM     11  C9  UNL     1       0.724  -4.459  -7.730  0.00  0.00    +0.037 A 
ATOM     12  C10 UNL     1       0.945  -5.833  -7.814  0.00  0.00    +0.070 A 
ENDROOT
BRANCH  11  13
ATOM     13  N1  UNL     1      -0.599  -3.976  -7.640  0.00  0.00    -0.284 N 
ATOM     14  C11 UNL     1      -1.368  -4.006  -6.486  0.00  0.00    +0.231 C 
ATOM     15  O3  UNL     1      -1.089  -4.617  -5.456  0.00  0.00    -0.274 OA
ATOM     16  H8  UNL     1      -1.106  -3.796  -8.500  0.00  0.00    +0.155 HD
BRANCH  14  17
ATOM     17  C12 UNL     1      -2.672  -3.216  -6.594  0.00  0.00    +0.175 C 
BRANCH  17  18
ATOM     18  N2  UNL     1      -2.431  -1.787  -6.369  0.00  0.00    -0.322 NA
ATOM     19  H11 UNL     1      -1.419  -1.643  -6.317  0.00  0.00    +0.119 HD
ATOM     20  H12 UNL     1      -2.722  -1.280  -7.207  0.00  0.00    +0.119 HD
ENDBRANCH  17  18
ENDBRANCH  14  17
ENDBRANCH  11  13
TORSDOF 3
ENDMDL
MODEL 10
REMARK VINA RESULT:      -6.0      4.014      6.507
REMARK  Name = Gly-AMC_min.pdb
REMARK  4 active torsions:
REMARK  status: ('A' for Active; 'I' for Inactive)
REMARK    1  A    between atoms: C1_1  and  C2_2
REMARK    2  A    between atoms: C9_11  and  N1_13
REMARK    3  A    between atoms: C11_14  and  C12_16
REMARK    4  A    between atoms: C12_16  and  N2_17
REMARK                            x       y       z     vdW  Elec       q    Type
REMARK                         _______ _______ _______ _____ _____    ______ ____
ROOT
ATOM      1  C1  UNL     1       0.897  -4.128  -6.919  0.00  0.00    +0.045 C 
ATOM      2  C2  UNL     1       2.063  -4.274  -7.854  0.00  0.00    -0.033 A 
ATOM      3  C3  UNL     1       2.105  -3.628  -9.027  0.00  0.00    +0.096 A 
ATOM      4  C4  UNL     1       3.227  -3.740  -9.975  0.00  0.00    +0.337 A 
ATOM      5  O1  UNL     1       3.219  -3.122 -11.030  0.00  0.00    -0.245 OA
ATOM      6  O2  UNL     1       4.271  -4.578  -9.612  0.00  0.00    -0.422 OA
ATOM      7  C5  UNL     1       4.265  -5.261  -8.380  0.00  0.00    +0.141 A 
ATOM      8  C6  UNL     1       3.198  -5.129  -7.487  0.00  0.00    +0.021 A 
ATOM      9  C7  UNL     1       3.282  -5.823  -6.279  0.00  0.00    +0.013 A 
ATOM     10  C8  UNL     1       4.408  -6.596  -5.973  0.00  0.00    +0.024 A 
ATOM     11  C9  UNL     1       5.477  -6.703  -6.870  0.00  0.00    +0.037 A 
ATOM     12  C10 UNL     1       5.389  -6.054  -8.101  0.00  0.00    +0.070 A 
ENDROOT
BRANCH  11  13
ATOM     13  N1  UNL     1       6.624  -7.470  -6.573  0.00  0.00    -0.284 N 
ATOM     14  C11 UNL     1       7.445  -7.261  -5.475  0.00  0.00    +0.231 C 
ATOM     15  O3  UNL     1       7.406  -6.285  -4.727  0.00  0.00    -0.274 OA
ATOM     16  H8  UNL     1       7.009  -8.063  -7.301  0.00  0.00    +0.155 HD
BRANCH  14  17
ATOM     17  C12 UNL     1       8.478  -8.366  -5.260  0.00  0.00    +0.175 C 
BRANCH  17  18
ATOM     18  N2  UNL     1       9.272  -8.105  -4.055  0.00  0.00    -0.322 NA
ATOM     19  H11 UNL     1      10.210  -8.487  -4.207  0.00  0.00    +0.119 HD
ATOM     20  H12 UNL     1       9.412  -7.097  -3.979  0.00  0.00    +0.119 HD
ENDBRANCH  17  18
ENDBRANCH  14  17
ENDBRANCH  11  13
TORSDOF 3
ENDMDL
MODEL 11
REMARK VINA RESULT:      -5.9      6.014      8.001
REMARK  Name = Gly-AMC_min.pdb
REMARK  4 active torsions:
REMARK  status: ('A' for Active; 'I' for Inactive)
REMARK    1  A    between atoms: C1_1  and  C2_2
REMARK    2  A    between atoms: C9_11  and  N1_13
REMARK    3  A    between atoms: C11_14  and  C12_16
REMARK    4  A    between atoms: C12_16  and  N2_17
REMARK                            x       y       z     vdW  Elec       q    Type
REMARK                         _______ _______ _______ _____ _____    ______ ____
ROOT
ATOM      1  C1  UNL     1       2.568  -5.326  -7.765  0.00  0.00    +0.045 C 
ATOM      2  C2  UNL     1       2.836  -6.802  -7.695  0.00  0.00    -0.033 A 
ATOM      3  C3  UNL     1       2.118  -7.679  -8.411  0.00  0.00    +0.096 A 
ATOM      4  C4  UNL     1       2.345  -9.133  -8.375  0.00  0.00    +0.337 A 
ATOM      5  O1  UNL     1       1.666  -9.889  -9.055  0.00  0.00    -0.245 OA
ATOM      6  O2  UNL     1       3.349  -9.590  -7.534  0.00  0.00    -0.422 OA
ATOM      7  C5  UNL     1       4.132  -8.694  -6.778  0.00  0.00    +0.141 A 
ATOM      8  C6  UNL     1       3.911  -7.316  -6.838  0.00  0.00    +0.021 A 
ATOM      9  C7  UNL     1       4.745  -6.497  -6.074  0.00  0.00    +0.013 A 
ATOM     10  C8  UNL     1       5.776  -7.046  -5.303  0.00  0.00    +0.024 A 
ATOM     11  C9  UNL     1       5.996  -8.428  -5.268  0.00  0.00    +0.037 A 
ATOM     12  C10 UNL     1       5.142  -9.263  -5.988  0.00  0.00    +0.070 A 
ENDROOT
BRANCH  11  13
ATOM     13  N1  UNL     1       7.037  -8.997  -4.504  0.00  0.00    -0.284 N 
ATOM     14  C11 UNL     1       8.366  -9.041  -4.898  0.00  0.00    +0.231 C 
ATOM     15  O3  UNL     1       8.789  -8.774  -6.022  0.00  0.00    -0.274 OA
ATOM     16  H8  UNL     1       6.790  -9.604  -3.728  0.00  0.00    +0.155 HD
BRANCH  14  17
ATOM     17  C12 UNL     1       9.320  -9.499  -3.796  0.00  0.00    +0.175 C 
BRANCH  17  18
ATOM     18  N2  UNL     1       9.692  -8.374  -2.932  0.00  0.00    -0.322 NA
ATOM     19  H11 UNL     1      10.574  -7.989  -3.279  0.00  0.00    +0.119 HD
ATOM     20  H12 UNL     1       9.010  -7.627  -3.072  0.00  0.00    +0.119 HD
ENDBRANCH  17  18
ENDBRANCH  14  17
ENDBRANCH  11  13
TORSDOF 3
ENDMDL
MODEL 12
REMARK VINA RESULT:      -5.9      4.703      7.466
REMARK  Name = Gly-AMC_min.pdb
REMARK  4 active torsions:
REMARK  status: ('A' for Active; 'I' for Inactive)
REMARK    1  A    between atoms: C1_1  and  C2_2
REMARK    2  A    between atoms: C9_11  and  N1_13
REMARK    3  A    between atoms: C11_14  and  C12_16
REMARK    4  A    between atoms: C12_16  and  N2_17
REMARK                            x       y       z     vdW  Elec       q    Type
REMARK                         _______ _______ _______ _____ _____    ______ ____
ROOT
ATOM      1  C1  UNL     1       2.820  -4.212 -10.549  0.00  0.00    +0.045 C 
ATOM      2  C2  UNL     1       2.903  -4.824 -11.918  0.00  0.00    -0.033 A 
ATOM      3  C3  UNL     1       1.893  -5.544 -12.425  0.00  0.00    +0.096 A 
ATOM      4  C4  UNL     1       1.929  -6.161 -13.762  0.00  0.00    +0.337 A 
ATOM      5  O1  UNL     1       0.975  -6.802 -14.180  0.00  0.00    -0.245 OA
ATOM      6  O2  UNL     1       3.089  -5.986 -14.501  0.00  0.00    -0.422 OA
ATOM      7  C5  UNL     1       4.164  -5.223 -14.003  0.00  0.00    +0.141 A 
ATOM      8  C6  UNL     1       4.104  -4.632 -12.739  0.00  0.00    +0.021 A 
ATOM      9  C7  UNL     1       5.204  -3.876 -12.330  0.00  0.00    +0.013 A 
ATOM     10  C8  UNL     1       6.307  -3.701 -13.174  0.00  0.00    +0.024 A 
ATOM     11  C9  UNL     1       6.344  -4.285 -14.446  0.00  0.00    +0.037 A 
ATOM     12  C10 UNL     1       5.274  -5.082 -14.850  0.00  0.00    +0.070 A 
ENDROOT
BRANCH  11  13
ATOM     13  N1  UNL     1       7.443  -4.111 -15.313  0.00  0.00    -0.284 N 
ATOM     14  C11 UNL     1       7.720  -2.941 -16.005  0.00  0.00    +0.231 C 
ATOM     15  O3  UNL     1       6.964  -1.978 -16.113  0.00  0.00    -0.274 OA
ATOM     16  H8  UNL     1       7.942  -4.936 -15.631  0.00  0.00    +0.155 HD
BRANCH  14  17
ATOM     17  C12 UNL     1       9.086  -2.939 -16.690  0.00  0.00    +0.175 C 
BRANCH  17  18
ATOM     18  N2  UNL     1       9.043  -2.156 -17.929  0.00  0.00    -0.322 NA
ATOM     19  H11 UNL     1       8.127  -2.303 -18.362  0.00  0.00    +0.119 HD
ATOM     20  H12 UNL     1       9.056  -1.166 -17.680  0.00  0.00    +0.119 HD
ENDBRANCH  17  18
ENDBRANCH  14  17
ENDBRANCH  11  13
TORSDOF 3
ENDMDL
MODEL 13
REMARK VINA RESULT:      -5.9      2.370      2.822
REMARK  Name = Gly-AMC_min.pdb
REMARK  4 active torsions:
REMARK  status: ('A' for Active; 'I' for Inactive)
REMARK    1  A    between atoms: C1_1  and  C2_2
REMARK    2  A    between atoms: C9_11  and  N1_13
REMARK    3  A    between atoms: C11_14  and  C12_16
REMARK    4  A    between atoms: C12_16  and  N2_17
REMARK                            x       y       z     vdW  Elec       q    Type
REMARK                         _______ _______ _______ _____ _____    ______ ____
ROOT
ATOM      1  C1  UNL     1       4.835  -6.845 -15.373  0.00  0.00    +0.045 C 
ATOM      2  C2  UNL     1       5.155  -5.592 -14.609  0.00  0.00    -0.033 A 
ATOM      3  C3  UNL     1       6.153  -4.779 -14.982  0.00  0.00    +0.096 A 
ATOM      4  C4  UNL     1       6.502  -3.541 -14.265  0.00  0.00    +0.337 A 
ATOM      5  O1  UNL     1       7.418  -2.831 -14.653  0.00  0.00    -0.245 OA
ATOM      6  O2  UNL     1       5.750  -3.237 -13.139  0.00  0.00    -0.422 OA
ATOM      7  C5  UNL     1       4.685  -4.062 -12.728  0.00  0.00    +0.141 A 
ATOM      8  C6  UNL     1       4.360  -5.225 -13.432  0.00  0.00    +0.021 A 
ATOM      9  C7  UNL     1       3.276  -5.974 -12.969  0.00  0.00    +0.013 A 
ATOM     10  C8  UNL     1       2.535  -5.552 -11.860  0.00  0.00    +0.024 A 
ATOM     11  C9  UNL     1       2.862  -4.375 -11.176  0.00  0.00    +0.037 A 
ATOM     12  C10 UNL     1       3.970  -3.640 -11.596  0.00  0.00    +0.070 A 
ENDROOT
BRANCH  11  13
ATOM     13  N1  UNL     1       2.120  -3.930 -10.062  0.00  0.00    -0.284 N 
ATOM     14  C11 UNL     1       2.562  -3.993  -8.749  0.00  0.00    +0.231 C 
ATOM     15  O3  UNL     1       3.554  -4.605  -8.356  0.00  0.00    -0.274 OA
ATOM     16  H8  UNL     1       1.127  -3.756 -10.182  0.00  0.00    +0.155 HD
BRANCH  14  17
ATOM     17  C12 UNL     1       1.671  -3.238  -7.762  0.00  0.00    +0.175 C 
BRANCH  17  18
ATOM     18  N2  UNL     1       1.460  -4.029  -6.546  0.00  0.00    -0.322 NA
ATOM     19  H11 UNL     1       0.880  -3.477  -5.908  0.00  0.00    +0.119 HD
ATOM     20  H12 UNL     1       0.883  -4.836  -6.788  0.00  0.00    +0.119 HD
ENDBRANCH  17  18
ENDBRANCH  14  17
ENDBRANCH  11  13
TORSDOF 3
ENDMDL
MODEL 14
REMARK VINA RESULT:      -5.9      5.159      7.009
REMARK  Name = Gly-AMC_min.pdb
REMARK  4 active torsions:
REMARK  status: ('A' for Active; 'I' for Inactive)
REMARK    1  A    between atoms: C1_1  and  C2_2
REMARK    2  A    between atoms: C9_11  and  N1_13
REMARK    3  A    between atoms: C11_14  and  C12_16
REMARK    4  A    between atoms: C12_16  and  N2_17
REMARK                            x       y       z     vdW  Elec       q    Type
REMARK                         _______ _______ _______ _____ _____    ______ ____
ROOT
ATOM      1  C1  UNL     1       2.266  -5.262  -7.284  0.00  0.00    +0.045 C 
ATOM      2  C2  UNL     1       3.703  -5.347  -7.712  0.00  0.00    -0.033 A 
ATOM      3  C3  UNL     1       4.132  -4.775  -8.846  0.00  0.00    +0.096 A 
ATOM      4  C4  UNL     1       5.530  -4.832  -9.304  0.00  0.00    +0.337 A 
ATOM      5  O1  UNL     1       5.870  -4.286 -10.344  0.00  0.00    -0.245 OA
ATOM      6  O2  UNL     1       6.422  -5.534  -8.507  0.00  0.00    -0.422 OA
ATOM      7  C5  UNL     1       6.008  -6.135  -7.302  0.00  0.00    +0.141 A 
ATOM      8  C6  UNL     1       4.679  -6.056  -6.877  0.00  0.00    +0.021 A 
ATOM      9  C7  UNL     1       4.358  -6.661  -5.660  0.00  0.00    +0.013 A 
ATOM     10  C8  UNL     1       5.342  -7.293  -4.892  0.00  0.00    +0.024 A 
ATOM     11  C9  UNL     1       6.672  -7.347  -5.323  0.00  0.00    +0.037 A 
ATOM     12  C10 UNL     1       7.001  -6.790  -6.558  0.00  0.00    +0.070 A 
ENDROOT
BRANCH  11  13
ATOM     13  N1  UNL     1       7.679  -7.972  -4.557  0.00  0.00    -0.284 N 
ATOM     14  C11 UNL     1       8.047  -9.304  -4.681  0.00  0.00    +0.231 C 
ATOM     15  O3  UNL     1       7.436 -10.158  -5.320  0.00  0.00    -0.274 OA
ATOM     16  H8  UNL     1       8.009  -7.503  -3.720  0.00  0.00    +0.155 HD
BRANCH  14  17
ATOM     17  C12 UNL     1       9.311  -9.668  -3.903  0.00  0.00    +0.175 C 
BRANCH  17  18
ATOM     18  N2  UNL     1       9.701  -8.574  -3.008  0.00  0.00    -0.322 NA
ATOM     19  H11 UNL     1       9.792  -8.958  -2.063  0.00  0.00    +0.119 HD
ATOM     20  H12 UNL     1      10.646  -8.278  -3.259  0.00  0.00    +0.119 HD
ENDBRANCH  17  18
ENDBRANCH  14  17
ENDBRANCH  11  13
TORSDOF 3
ENDMDL
MODEL 15
REMARK VINA RESULT:      -5.9      5.569      7.528
REMARK  Name = Gly-AMC_min.pdb
REMARK  4 active torsions:
REMARK  status: ('A' for Active; 'I' for Inactive)
REMARK    1  A    between atoms: C1_1  and  C2_2
REMARK    2  A    between atoms: C9_11  and  N1_13
REMARK    3  A    between atoms: C11_14  and  C12_16
REMARK    4  A    between atoms: C12_16  and  N2_17
REMARK                            x       y       z     vdW  Elec       q    Type
REMARK                         _______ _______ _______ _____ _____    ______ ____
ROOT
ATOM      1  C1  UNL     1       1.970  -8.322  -8.761  0.00  0.00    +0.045 C 
ATOM      2  C2  UNL     1       2.991  -7.362  -8.221  0.00  0.00    -0.033 A 
ATOM      3  C3  UNL     1       2.984  -6.065  -8.563  0.00  0.00    +0.096 A 
ATOM      4  C4  UNL     1       3.963  -5.088  -8.057  0.00  0.00    +0.337 A 
ATOM      5  O1  UNL     1       3.906  -3.915  -8.396  0.00  0.00    -0.245 OA
ATOM      6  O2  UNL     1       4.941  -5.569  -7.199  0.00  0.00    -0.422 OA
ATOM      7  C5  UNL     1       4.968  -6.922  -6.808  0.00  0.00    +0.141 A 
ATOM      8  C6  UNL     1       4.021  -7.830  -7.286  0.00  0.00    +0.021 A 
ATOM      9  C7  UNL     1       4.107  -9.148  -6.832  0.00  0.00    +0.013 A 
ATOM     10  C8  UNL     1       5.092  -9.525  -5.913  0.00  0.00    +0.024 A 
ATOM     11  C9  UNL     1       6.023  -8.599  -5.429  0.00  0.00    +0.037 A 
ATOM     12  C10 UNL     1       5.980  -7.291  -5.908  0.00  0.00    +0.070 A 
ENDROOT
BRANCH  11  13
ATOM     13  N1  UNL     1       7.017  -8.961  -4.495  0.00  0.00    -0.284 N 
ATOM     14  C11 UNL     1       8.243  -9.517  -4.828  0.00  0.00    +0.231 C 
ATOM     15  O3  UNL     1       8.557  -9.944  -5.938  0.00  0.00    -0.274 OA
ATOM     16  H8  UNL     1       6.756  -9.031  -3.516  0.00  0.00    +0.155 HD
BRANCH  14  17
ATOM     17  C12 UNL     1       9.221  -9.599  -3.656  0.00  0.00    +0.175 C 
BRANCH  17  18
ATOM     18  N2  UNL     1       9.622  -8.257  -3.222  0.00  0.00    -0.322 NA
ATOM     19  H11 UNL     1       8.876  -7.607  -3.481  0.00  0.00    +0.119 HD
ATOM     20  H12 UNL     1       9.635  -8.244  -2.201  0.00  0.00    +0.119 HD
ENDBRANCH  17  18
ENDBRANCH  14  17
ENDBRANCH  11  13
TORSDOF 3
ENDMDL
MODEL 16
REMARK VINA RESULT:      -5.8      5.309      7.249
REMARK  Name = Gly-AMC_min.pdb
REMARK  4 active torsions:
REMARK  status: ('A' for Active; 'I' for Inactive)
REMARK    1  A    between atoms: C1_1  and  C2_2
REMARK    2  A    between atoms: C9_11  and  N1_13
REMARK    3  A    between atoms: C11_14  and  C12_16
REMARK    4  A    between atoms: C12_16  and  N2_17
REMARK                            x       y       z     vdW  Elec       q    Type
REMARK                         _______ _______ _______ _____ _____    ______ ____
ROOT
ATOM      1  C1  UNL     1       9.729   1.624 -14.928  0.00  0.00    +0.045 C 
ATOM      2  C2  UNL     1       9.343   0.323 -15.570  0.00  0.00    -0.033 A 
ATOM      3  C3  UNL     1       8.927   0.267 -16.844  0.00  0.00    +0.096 A 
ATOM      4  C4  UNL     1       8.540  -0.986 -17.515  0.00  0.00    +0.337 A 
ATOM      5  O1  UNL     1       8.175  -0.982 -18.682  0.00  0.00    -0.245 OA
ATOM      6  O2  UNL     1       8.602  -2.147 -16.759  0.00  0.00    -0.422 OA
ATOM      7  C5  UNL     1       9.047  -2.125 -15.422  0.00  0.00    +0.141 A 
ATOM      8  C6  UNL     1       9.426  -0.928 -14.808  0.00  0.00    +0.021 A 
ATOM      9  C7  UNL     1       9.875  -0.998 -13.488  0.00  0.00    +0.013 A 
ATOM     10  C8  UNL     1       9.965  -2.228 -12.826  0.00  0.00    +0.024 A 
ATOM     11  C9  UNL     1       9.599  -3.420 -13.461  0.00  0.00    +0.037 A 
ATOM     12  C10 UNL     1       9.103  -3.362 -14.763  0.00  0.00    +0.070 A 
ENDROOT
BRANCH  11  13
ATOM     13  N1  UNL     1       9.692  -4.669 -12.812  0.00  0.00    -0.284 N 
ATOM     14  C11 UNL     1       8.666  -5.252 -12.081  0.00  0.00    +0.231 C 
ATOM     15  O3  UNL     1       7.625  -4.695 -11.739  0.00  0.00    -0.274 OA
ATOM     16  H8  UNL     1      10.612  -5.074 -12.675  0.00  0.00    +0.155 HD
BRANCH  14  17
ATOM     17  C12 UNL     1       8.944  -6.700 -11.678  0.00  0.00    +0.175 C 
BRANCH  17  18
ATOM     18  N2  UNL     1       9.871  -6.752 -10.543  0.00  0.00    -0.322 NA
ATOM     19  H11 UNL     1       9.444  -6.243  -9.764  0.00  0.00    +0.119 HD
ATOM     20  H12 UNL     1       9.925  -7.720 -10.221  0.00  0.00    +0.119 HD
ENDBRANCH  17  18
ENDBRANCH  14  17
ENDBRANCH  11  13
TORSDOF 3
ENDMDL
MODEL 17
REMARK VINA RESULT:      -5.8      7.412      8.529
REMARK  Name = Gly-AMC_min.pdb
REMARK  4 active torsions:
REMARK  status: ('A' for Active; 'I' for Inactive)
REMARK    1  A    between atoms: C1_1  and  C2_2
REMARK    2  A    between atoms: C9_11  and  N1_13
REMARK    3  A    between atoms: C11_14  and  C12_16
REMARK    4  A    between atoms: C12_16  and  N2_17
REMARK                            x       y       z     vdW  Elec       q    Type
REMARK                         _______ _______ _______ _____ _____    ______ ____
ROOT
ATOM      1  C1  UNL     1       9.965  -1.722 -12.708  0.00  0.00    +0.045 C 
ATOM      2  C2  UNL     1       9.599  -1.426 -14.134  0.00  0.00    -0.033 A 
ATOM      3  C3  UNL     1       9.609  -0.174 -14.614  0.00  0.00    +0.096 A 
ATOM      4  C4  UNL     1       9.259   0.163 -16.004  0.00  0.00    +0.337 A 
ATOM      5  O1  UNL     1       9.293   1.322 -16.393  0.00  0.00    -0.245 OA
ATOM      6  O2  UNL     1       8.886  -0.888 -16.829  0.00  0.00    -0.422 OA
ATOM      7  C5  UNL     1       8.878  -2.216 -16.360  0.00  0.00    +0.141 A 
ATOM      8  C6  UNL     1       9.229  -2.518 -15.042  0.00  0.00    +0.021 A 
ATOM      9  C7  UNL     1       9.214  -3.862 -14.664  0.00  0.00    +0.013 A 
ATOM     10  C8  UNL     1       8.886  -4.861 -15.587  0.00  0.00    +0.024 A 
ATOM     11  C9  UNL     1       8.554  -4.544 -16.909  0.00  0.00    +0.037 A 
ATOM     12  C10 UNL     1       8.518  -3.204 -17.290  0.00  0.00    +0.070 A 
ENDROOT
BRANCH  11  13
ATOM     13  N1  UNL     1       8.230  -5.540 -17.855  0.00  0.00    -0.284 N 
ATOM     14  C11 UNL     1       7.106  -6.350 -17.788  0.00  0.00    +0.231 C 
ATOM     15  O3  UNL     1       6.353  -6.450 -16.822  0.00  0.00    -0.274 OA
ATOM     16  H8  UNL     1       8.952  -5.844 -18.501  0.00  0.00    +0.155 HD
BRANCH  14  17
ATOM     17  C12 UNL     1       6.870  -7.181 -19.050  0.00  0.00    +0.175 C 
BRANCH  17  18
ATOM     18  N2  UNL     1       6.494  -8.555 -18.701  0.00  0.00    -0.322 NA
ATOM     19  H11 UNL     1       6.298  -8.582 -17.697  0.00  0.00    +0.119 HD
ATOM     20  H12 UNL     1       5.598  -8.761 -19.145  0.00  0.00    +0.119 HD
ENDBRANCH  17  18
ENDBRANCH  14  17
ENDBRANCH  11  13
TORSDOF 3
ENDMDL
MODEL 18
REMARK VINA RESULT:      -5.7      2.944      6.452
REMARK  Name = Gly-AMC_min.pdb
REMARK  4 active torsions:
REMARK  status: ('A' for Active; 'I' for Inactive)
REMARK    1  A    between atoms: C1_1  and  C2_2
REMARK    2  A    between atoms: C9_11  and  N1_13
REMARK    3  A    between atoms: C11_14  and  C12_16
REMARK    4  A    between atoms: C12_16  and  N2_17
REMARK                            x       y       z     vdW  Elec       q    Type
REMARK                         _______ _______ _______ _____ _____    ______ ____
ROOT
ATOM      1  C1  UNL     1       2.057  -7.371  -8.232  0.00  0.00    +0.045 C 
ATOM      2  C2  UNL     1       2.250  -5.930  -8.611  0.00  0.00    -0.033 A 
ATOM      3  C3  UNL     1       1.816  -4.936  -7.824  0.00  0.00    +0.096 A 
ATOM      4  C4  UNL     1       1.984  -3.510  -8.153  0.00  0.00    +0.337 A 
ATOM      5  O1  UNL     1       1.576  -2.641  -7.396  0.00  0.00    -0.245 OA
ATOM      6  O2  UNL     1       2.610  -3.215  -9.355  0.00  0.00    -0.422 OA
ATOM      7  C5  UNL     1       3.090  -4.236 -10.199  0.00  0.00    +0.141 A 
ATOM      8  C6  UNL     1       2.936  -5.583  -9.860  0.00  0.00    +0.021 A 
ATOM      9  C7  UNL     1       3.459  -6.531 -10.742  0.00  0.00    +0.013 A 
ATOM     10  C8  UNL     1       4.134  -6.134 -11.902  0.00  0.00    +0.024 A 
ATOM     11  C9  UNL     1       4.296  -4.781 -12.217  0.00  0.00    +0.037 A 
ATOM     12  C10 UNL     1       3.739  -3.822 -11.372  0.00  0.00    +0.070 A 
ENDROOT
BRANCH  11  13
ATOM     13  N1  UNL     1       4.983  -4.363 -13.378  0.00  0.00    -0.284 N 
ATOM     14  C11 UNL     1       6.277  -3.865 -13.387  0.00  0.00    +0.231 C 
ATOM     15  O3  UNL     1       6.926  -3.540 -12.395  0.00  0.00    -0.274 OA
ATOM     16  H8  UNL     1       4.446  -4.206 -14.225  0.00  0.00    +0.155 HD
BRANCH  14  17
ATOM     17  C12 UNL     1       6.865  -3.705 -14.789  0.00  0.00    +0.175 C 
BRANCH  17  18
ATOM     18  N2  UNL     1       7.619  -2.451 -14.894  0.00  0.00    -0.322 NA
ATOM     19  H11 UNL     1       8.472  -2.550 -14.337  0.00  0.00    +0.119 HD
ATOM     20  H12 UNL     1       7.947  -2.357 -15.857  0.00  0.00    +0.119 HD
ENDBRANCH  17  18
ENDBRANCH  14  17
ENDBRANCH  11  13
TORSDOF 3
ENDMDL
MODEL 19
REMARK VINA RESULT:      -5.7      3.223      4.866
REMARK  Name = Gly-AMC_min.pdb
REMARK  4 active torsions:
REMARK  status: ('A' for Active; 'I' for Inactive)
REMARK    1  A    between atoms: C1_1  and  C2_2
REMARK    2  A    between atoms: C9_11  and  N1_13
REMARK    3  A    between atoms: C11_14  and  C12_16
REMARK    4  A    between atoms: C12_16  and  N2_17
REMARK                            x       y       z     vdW  Elec       q    Type
REMARK                         _______ _______ _______ _____ _____    ______ ____
ROOT
ATOM      1  C1  UNL     1       7.339  -4.551 -17.923  0.00  0.00    +0.045 C 
ATOM      2  C2  UNL     1       7.769  -3.651 -16.800  0.00  0.00    -0.033 A 
ATOM      3  C3  UNL     1       8.584  -2.608 -17.012  0.00  0.00    +0.096 A 
ATOM      4  C4  UNL     1       9.031  -1.699 -15.944  0.00  0.00    +0.337 A 
ATOM      5  O1  UNL     1       9.769  -0.756 -16.193  0.00  0.00    -0.245 OA
ATOM      6  O2  UNL     1       8.583  -1.973 -14.660  0.00  0.00    -0.422 OA
ATOM      7  C5  UNL     1       7.714  -3.053 -14.405  0.00  0.00    +0.141 A 
ATOM      8  C6  UNL     1       7.289  -3.895 -15.435  0.00  0.00    +0.021 A 
ATOM      9  C7  UNL     1       6.412  -4.928 -15.100  0.00  0.00    +0.013 A 
ATOM     10  C8  UNL     1       5.962  -5.087 -13.784  0.00  0.00    +0.024 A 
ATOM     11  C9  UNL     1       6.384  -4.224 -12.767  0.00  0.00    +0.037 A 
ATOM     12  C10 UNL     1       7.296  -3.216 -13.075  0.00  0.00    +0.070 A 
ENDROOT
BRANCH  11  13
ATOM     13  N1  UNL     1       5.933  -4.364 -11.437  0.00  0.00    -0.284 N 
ATOM     14  C11 UNL     1       6.706  -4.850 -10.393  0.00  0.00    +0.231 C 
ATOM     15  O3  UNL     1       7.802  -5.395 -10.507  0.00  0.00    -0.274 OA
ATOM     16  H8  UNL     1       4.934  -4.322 -11.259  0.00  0.00    +0.155 HD
BRANCH  14  17
ATOM     17  C12 UNL     1       6.059  -4.683  -9.018  0.00  0.00    +0.175 C 
BRANCH  17  18
ATOM     18  N2  UNL     1       6.947  -3.944  -8.114  0.00  0.00    -0.322 NA
ATOM     19  H11 UNL     1       6.964  -4.438  -7.217  0.00  0.00    +0.119 HD
ATOM     20  H12 UNL     1       7.900  -4.022  -8.471  0.00  0.00    +0.119 HD
ENDBRANCH  17  18
ENDBRANCH  14  17
ENDBRANCH  11  13
TORSDOF 3
ENDMDL
MODEL 20
REMARK VINA RESULT:      -5.7      2.248      3.066
REMARK  Name = Gly-AMC_min.pdb
REMARK  4 active torsions:
REMARK  status: ('A' for Active; 'I' for Inactive)
REMARK    1  A    between atoms: C1_1  and  C2_2
REMARK    2  A    between atoms: C9_11  and  N1_13
REMARK    3  A    between atoms: C11_14  and  C12_16
REMARK    4  A    between atoms: C12_16  and  N2_17
REMARK                            x       y       z     vdW  Elec       q    Type
REMARK                         _______ _______ _______ _____ _____    ______ ____
ROOT
ATOM      1  C1  UNL     1       4.767  -5.684 -12.504  0.00  0.00    +0.045 C 
ATOM      2  C2  UNL     1       4.897  -5.257 -11.070  0.00  0.00    -0.033 A 
ATOM      3  C3  UNL     1       6.047  -4.768 -10.586  0.00  0.00    +0.096 A 
ATOM      4  C4  UNL     1       6.220  -4.336  -9.189  0.00  0.00    +0.337 A 
ATOM      5  O1  UNL     1       7.290  -3.889  -8.800  0.00  0.00    -0.245 OA
ATOM      6  O2  UNL     1       5.123  -4.472  -8.351  0.00  0.00    -0.422 OA
ATOM      7  C5  UNL     1       3.895  -4.969  -8.831  0.00  0.00    +0.141 A 
ATOM      8  C6  UNL     1       3.747  -5.359 -10.165  0.00  0.00    +0.021 A 
ATOM      9  C7  UNL     1       2.491  -5.821 -10.563  0.00  0.00    +0.013 A 
ATOM     10  C8  UNL     1       1.423  -5.861  -9.660  0.00  0.00    +0.024 A 
ATOM     11  C9  UNL     1       1.583  -5.450  -8.332  0.00  0.00    +0.037 A 
ATOM     12  C10 UNL     1       2.842  -5.031  -7.905  0.00  0.00    +0.070 A 
ENDROOT
BRANCH  11  13
ATOM     13  N1  UNL     1       0.514  -5.475  -7.410  0.00  0.00    -0.284 N 
ATOM     14  C11 UNL     1       0.072  -4.375  -6.692  0.00  0.00    +0.231 C 
ATOM     15  O3  UNL     1       0.652  -3.294  -6.608  0.00  0.00    -0.274 OA
ATOM     16  H8  UNL     1       0.184  -6.376  -7.079  0.00  0.00    +0.155 HD
BRANCH  14  17
ATOM     17  C12 UNL     1      -1.239  -4.615  -5.942  0.00  0.00    +0.175 C 
BRANCH  17  18
ATOM     18  N2  UNL     1      -2.346  -3.912  -6.598  0.00  0.00    -0.322 NA
ATOM     19  H11 UNL     1      -3.185  -4.493  -6.506  0.00  0.00    +0.119 HD
ATOM     20  H12 UNL     1      -2.553  -3.071  -6.058  0.00  0.00    +0.119 HD
ENDBRANCH  17  18
ENDBRANCH  14  17
ENDBRANCH  11  13
TORSDOF 3
ENDMDL
