MODEL 1
REMARK minimizedAffinity -7.58435631
REMARK minimizedRMSD -1
REMARK  Name = IDTT_min.pdb
REMARK  20 active torsions:
REMARK  status: ('A' for Active; 'I' for Inactive)
REMARK    1  A    between atoms: N_1  and  CA_2
REMARK    2  A    between atoms: CA_2  and  C_3
REMARK    3  A    between atoms: CA_2  and  CB_5
REMARK    4  A    between atoms: CB_5  and  CG1_6
REMARK    5  A    between atoms: CB_5  and  CG2_7
REMARK    6  A    between atoms: CG1_6  and  CD1_8
REMARK    7  A    between atoms: N_9  and  CA_10
REMARK    8  A    between atoms: CA_10  and  C_11
REMARK    9  A    between atoms: CA_10  and  CB_13
REMARK   10  A    between atoms: CB_13  and  CG_14
REMARK   11  A    between atoms: N_17  and  CA_18
REMARK   12  A    between atoms: CA_18  and  C_19
REMARK   13  A    between atoms: CA_18  and  CB_21
REMARK   14  A    between atoms: CB_21  and  OG1_22
REMARK   15  A    between atoms: CB_21  and  CG2_23
REMARK   16  A    between atoms: N_24  and  CA_25
REMARK   17  A    between atoms: CA_25  and  C_26
REMARK   18  A    between atoms: CA_25  and  CB_29
REMARK   19  A    between atoms: CB_29  and  OG1_30
REMARK   20  A    between atoms: CB_29  and  CG2_31
REMARK                            x       y       z     vdW  Elec       q    Type
REMARK                         _______ _______ _______ _____ _____    ______ ____
ROOT
ATOM      1  C   ASP A   2       3.061  -4.446 -10.049  0.00  0.00    +0.235 C 
ATOM      2  O   ASP A   2       2.969  -3.275 -10.394  0.00  0.00    -0.274 OA
ATOM      3  N   THR A   3       2.842  -5.493 -10.932  0.00  0.00    -0.300 N 
ATOM      4  H   THR A   3       3.482  -6.267 -10.827  0.00  0.00    +0.150 HD
ENDROOT
BRANCH   3   5
ATOM      5  CA  THR A   3       2.317  -5.246 -12.283  0.00  0.00    +0.187 C 
BRANCH   5   6
ATOM      6  C   THR A   3       1.232  -6.269 -12.688  0.00  0.00    +0.237 C 
ATOM      7  O   THR A   3       0.317  -5.951 -13.444  0.00  0.00    -0.274 OA
ATOM      8  N   THR A   4       1.555  -7.582 -12.388  0.00  0.00    -0.294 N 
ATOM      9  H   THR A   4       1.851  -7.701 -11.418  0.00  0.00    +0.150 HD
BRANCH   8  10
ATOM     10  CA  THR A   4       0.670  -8.680 -12.833  0.00  0.00    +0.241 C 
BRANCH  10  11
ATOM     11  C   THR A   4       0.470  -9.822 -11.800  0.00  0.00    +0.257 C 
ATOM     12  O   THR A   4      -0.726 -10.116 -11.528  0.00  0.00    -0.203 OA
ATOM     13  OXT THR A   4       1.549 -10.389 -11.451  0.00  0.00    -0.203 OA
ENDBRANCH  10  11
BRANCH  10  14
ATOM     14  CB  THR A   4       1.284  -9.441 -14.029  0.00  0.00    +0.149 C 
ATOM     15  CG2 THR A   4       0.737  -8.946 -15.361  0.00  0.00    +0.041 C 
BRANCH  14  16
ATOM     16  OG1 THR A   4       2.711  -9.260 -14.106  0.00  0.00    -0.389 OA
ATOM     17  H   THR A   4       3.014  -9.321 -13.158  0.00  0.00    +0.210 HD
ENDBRANCH  14  16
ENDBRANCH  10  14
ENDBRANCH   8  10
ENDBRANCH   5   6
BRANCH   5  18
ATOM     18  CB  THR A   3       3.477  -5.376 -13.302  0.00  0.00    +0.141 C 
ATOM     19  CG2 THR A   3       4.764  -5.968 -12.731  0.00  0.00    +0.040 C 
BRANCH  18  20
ATOM     20  OG1 THR A   3       3.055  -6.196 -14.410  0.00  0.00    -0.390 OA
ATOM     21  H   THR A   3       2.896  -7.090 -14.051  0.00  0.00    +0.210 HD
ENDBRANCH  18  20
ENDBRANCH   5  18
ENDBRANCH   3   5
BRANCH   1  22
ATOM     22  CA  ASP A   2       3.587  -4.883  -8.658  0.00  0.00    +0.175 C 
BRANCH  22  25
ATOM     23  C   ILE A   1       1.354  -4.834  -7.639  0.00  0.00    +0.199 C 
ATOM     24  O   ILE A   1       0.950  -5.657  -8.435  0.00  0.00    -0.278 OA
ATOM     25  N   ASP A   2       2.678  -4.445  -7.571  0.00  0.00    -0.304 N 
ATOM     26  H   ASP A   2       2.773  -3.415  -7.512  0.00  0.00    +0.149 HD
BRANCH  23  27
ATOM     27  CA  ILE A   1       0.462  -4.224  -6.539  0.00  0.00    +0.016 C 
BRANCH  27  28
ATOM     28  N   ILE A   1       0.752  -2.741  -6.489  0.00  0.00    +0.386 N 
ATOM     29  H   ILE A   1       1.767  -2.630  -6.371  0.00  0.00    -0.089 HD
ATOM     30  H   ILE A   1       0.281  -2.255  -5.728  0.00  0.00    -0.089 HD
ATOM     31  H   ILE A   1       0.513  -2.323  -7.399  0.00  0.00    -0.089 HD
ENDBRANCH  27  28
BRANCH  27  32
ATOM     32  CB  ILE A   1      -1.047  -4.470  -6.763  0.00  0.00    -0.020 C 
ATOM     33  CG2 ILE A   1      -1.623  -5.187  -5.530  0.00  0.00    +0.006 C 
BRANCH  32  34
ATOM     34  CG1 ILE A   1      -1.823  -3.156  -7.021  0.00  0.00    -0.001 C 
ATOM     35  CD1 ILE A   1      -3.337  -3.336  -7.032  0.00  0.00    +0.004 C 
ENDBRANCH  32  34
ENDBRANCH  27  32
ENDBRANCH  23  27
ENDBRANCH  22  25
BRANCH  22  36
ATOM     36  CB  ASP A   2       3.736  -6.398  -8.630  0.00  0.00    +0.189 C 
BRANCH  36  37
ATOM     37  CG  ASP A   2       4.249  -6.919  -7.289  0.00  0.00    +0.236 C 
ATOM     38  OD1 ASP A   2       5.095  -6.168  -6.703  0.00  0.00    -0.205 OA
ATOM     39  OD2 ASP A   2       3.686  -7.960  -6.865  0.00  0.00    -0.205 OA
ENDBRANCH  36  37
ENDBRANCH  22  36
ENDBRANCH   1  22
TORSDOF 16
ENDMDL
MODEL 2
REMARK minimizedAffinity -7.32837057
REMARK minimizedRMSD -1
REMARK  Name = IDTT_min.pdb
REMARK  20 active torsions:
REMARK  status: ('A' for Active; 'I' for Inactive)
REMARK    1  A    between atoms: N_1  and  CA_2
REMARK    2  A    between atoms: CA_2  and  C_3
REMARK    3  A    between atoms: CA_2  and  CB_5
REMARK    4  A    between atoms: CB_5  and  CG1_6
REMARK    5  A    between atoms: CB_5  and  CG2_7
REMARK    6  A    between atoms: CG1_6  and  CD1_8
REMARK    7  A    between atoms: N_9  and  CA_10
REMARK    8  A    between atoms: CA_10  and  C_11
REMARK    9  A    between atoms: CA_10  and  CB_13
REMARK   10  A    between atoms: CB_13  and  CG_14
REMARK   11  A    between atoms: N_17  and  CA_18
REMARK   12  A    between atoms: CA_18  and  C_19
REMARK   13  A    between atoms: CA_18  and  CB_21
REMARK   14  A    between atoms: CB_21  and  OG1_22
REMARK   15  A    between atoms: CB_21  and  CG2_23
REMARK   16  A    between atoms: N_24  and  CA_25
REMARK   17  A    between atoms: CA_25  and  C_26
REMARK   18  A    between atoms: CA_25  and  CB_29
REMARK   19  A    between atoms: CB_29  and  OG1_30
REMARK   20  A    between atoms: CB_29  and  CG2_31
REMARK                            x       y       z     vdW  Elec       q    Type
REMARK                         _______ _______ _______ _____ _____    ______ ____
ROOT
ATOM      1  C   ASP A   2       7.002  -4.225 -11.091  0.00  0.00    +0.235 C 
ATOM      2  O   ASP A   2       7.566  -4.160 -10.006  0.00  0.00    -0.274 OA
ATOM      3  N   THR A   3       7.647  -3.901 -12.276  0.00  0.00    -0.300 N 
ATOM      4  H   THR A   3       7.429  -4.514 -13.050  0.00  0.00    +0.150 HD
ENDROOT
BRANCH   3   5
ATOM      5  CA  THR A   3       8.987  -3.295 -12.268  0.00  0.00    +0.187 C 
BRANCH   5   6
ATOM      6  C   THR A   3       9.140  -2.194 -13.340  0.00  0.00    +0.237 C 
ATOM      7  O   THR A   3       9.323  -1.021 -13.018  0.00  0.00    -0.274 OA
ATOM      8  N   THR A   4       9.357  -2.677 -14.619  0.00  0.00    -0.294 N 
ATOM      9  H   THR A   4       8.673  -3.386 -14.891  0.00  0.00    +0.150 HD
BRANCH   8  10
ATOM     10  CA  THR A   4       9.650  -1.740 -15.724  0.00  0.00    +0.241 C 
BRANCH  10  11
ATOM     11  C   THR A   4       8.407  -1.049 -16.347  0.00  0.00    +0.257 C 
ATOM     12  O   THR A   4       7.308  -1.651 -16.199  0.00  0.00    -0.203 OA
ATOM     13  OXT THR A   4       8.649   0.100 -16.828  0.00  0.00    -0.203 OA
ENDBRANCH  10  11
BRANCH  10  14
ATOM     14  CB  THR A   4      10.243  -2.481 -16.943  0.00  0.00    +0.149 C 
ATOM     15  CG2 THR A   4      10.300  -3.987 -16.721  0.00  0.00    +0.041 C 
BRANCH  14  16
ATOM     16  OG1 THR A   4       9.445  -2.295 -18.127  0.00  0.00    -0.389 OA
ATOM     17  H   THR A   4       9.191  -1.331 -18.098  0.00  0.00    +0.210 HD
ENDBRANCH  14  16
ENDBRANCH  10  14
ENDBRANCH   8  10
ENDBRANCH   5   6
BRANCH   5  18
ATOM     18  CB  THR A   3      10.034  -4.393 -12.581  0.00  0.00    +0.141 C 
ATOM     19  CG2 THR A   3      10.593  -5.111 -11.353  0.00  0.00    +0.040 C 
BRANCH  18  20
ATOM     20  OG1 THR A   3       9.450  -5.379 -13.455  0.00  0.00    -0.390 OA
ATOM     21  H   THR A   3       8.734  -5.811 -12.951  0.00  0.00    +0.210 HD
ENDBRANCH  18  20
ENDBRANCH   5  18
ENDBRANCH   3   5
BRANCH   1  22
ATOM     22  CA  ASP A   2       5.586  -4.827 -11.279  0.00  0.00    +0.175 C 
BRANCH  22  25
ATOM     23  C   ILE A   1       4.720  -6.269  -9.490  0.00  0.00    +0.199 C 
ATOM     24  O   ILE A   1       5.271  -7.236  -9.975  0.00  0.00    -0.278 OA
ATOM     25  N   ASP A   2       4.888  -4.987  -9.980  0.00  0.00    -0.304 N 
ATOM     26  H   ASP A   2       3.984  -4.491 -10.074  0.00  0.00    +0.149 HD
BRANCH  23  27
ATOM     27  CA  ILE A   1       3.871  -6.344  -8.205  0.00  0.00    +0.016 C 
BRANCH  27  28
ATOM     28  N   ILE A   1       4.783  -6.034  -7.040  0.00  0.00    +0.386 N 
ATOM     29  H   ILE A   1       5.586  -6.674  -7.099  0.00  0.00    -0.089 HD
ATOM     30  H   ILE A   1       4.342  -6.150  -6.129  0.00  0.00    -0.089 HD
ATOM     31  H   ILE A   1       5.157  -5.081  -7.152  0.00  0.00    -0.089 HD
ENDBRANCH  27  28
BRANCH  27  32
ATOM     32  CB  ILE A   1       2.659  -5.386  -8.209  0.00  0.00    -0.020 C 
ATOM     33  CG2 ILE A   1       1.465  -6.096  -8.870  0.00  0.00    +0.006 C 
BRANCH  32  34
ATOM     34  CG1 ILE A   1       2.275  -4.920  -6.784  0.00  0.00    -0.001 C 
ATOM     35  CD1 ILE A   1       0.983  -4.113  -6.736  0.00  0.00    +0.004 C 
ENDBRANCH  32  34
ENDBRANCH  27  32
ENDBRANCH  23  27
ENDBRANCH  22  25
BRANCH  22  36
ATOM     36  CB  ASP A   2       4.774  -3.924 -12.196  0.00  0.00    +0.189 C 
BRANCH  36  37
ATOM     37  CG  ASP A   2       3.296  -3.866 -11.813  0.00  0.00    +0.236 C 
ATOM     38  OD1 ASP A   2       2.560  -4.753 -12.355  0.00  0.00    -0.205 OA
ATOM     39  OD2 ASP A   2       3.004  -3.032 -10.919  0.00  0.00    -0.205 OA
ENDBRANCH  36  37
ENDBRANCH  22  36
ENDBRANCH   1  22
TORSDOF 16
ENDMDL
MODEL 3
REMARK minimizedAffinity -7.23227596
REMARK minimizedRMSD -1
REMARK  Name = IDTT_min.pdb
REMARK  20 active torsions:
REMARK  status: ('A' for Active; 'I' for Inactive)
REMARK    1  A    between atoms: N_1  and  CA_2
REMARK    2  A    between atoms: CA_2  and  C_3
REMARK    3  A    between atoms: CA_2  and  CB_5
REMARK    4  A    between atoms: CB_5  and  CG1_6
REMARK    5  A    between atoms: CB_5  and  CG2_7
REMARK    6  A    between atoms: CG1_6  and  CD1_8
REMARK    7  A    between atoms: N_9  and  CA_10
REMARK    8  A    between atoms: CA_10  and  C_11
REMARK    9  A    between atoms: CA_10  and  CB_13
REMARK   10  A    between atoms: CB_13  and  CG_14
REMARK   11  A    between atoms: N_17  and  CA_18
REMARK   12  A    between atoms: CA_18  and  C_19
REMARK   13  A    between atoms: CA_18  and  CB_21
REMARK   14  A    between atoms: CB_21  and  OG1_22
REMARK   15  A    between atoms: CB_21  and  CG2_23
REMARK   16  A    between atoms: N_24  and  CA_25
REMARK   17  A    between atoms: CA_25  and  C_26
REMARK   18  A    between atoms: CA_25  and  CB_29
REMARK   19  A    between atoms: CB_29  and  OG1_30
REMARK   20  A    between atoms: CB_29  and  CG2_31
REMARK                            x       y       z     vdW  Elec       q    Type
REMARK                         _______ _______ _______ _____ _____    ______ ____
ROOT
ATOM      1  C   ASP A   2       4.355  -4.851  -9.284  0.00  0.00    +0.235 C 
ATOM      2  O   ASP A   2       4.906  -4.150  -8.445  0.00  0.00    -0.274 OA
ATOM      3  N   THR A   3       5.028  -5.858  -9.959  0.00  0.00    -0.300 N 
ATOM      4  H   THR A   3       4.487  -6.701 -10.094  0.00  0.00    +0.150 HD
ENDROOT
BRANCH   3   5
ATOM      5  CA  THR A   3       6.484  -6.019  -9.822  0.00  0.00    +0.187 C 
BRANCH   5   6
ATOM      6  C   THR A   3       7.231  -5.740 -11.145  0.00  0.00    +0.237 C 
ATOM      7  O   THR A   3       7.438  -6.642 -11.955  0.00  0.00    -0.274 OA
ATOM      8  N   THR A   4       7.354  -4.395 -11.451  0.00  0.00    -0.294 N 
ATOM      9  H   THR A   4       7.731  -3.849 -10.676  0.00  0.00    +0.150 HD
BRANCH   8  10
ATOM     10  CA  THR A   4       7.931  -3.983 -12.749  0.00  0.00    +0.241 C 
BRANCH  10  11
ATOM     11  C   THR A   4       8.924  -2.792 -12.677  0.00  0.00    +0.257 C 
ATOM     12  O   THR A   4       8.617  -1.775 -13.356  0.00  0.00    -0.203 OA
ATOM     13  OXT THR A   4       9.865  -2.962 -11.842  0.00  0.00    -0.203 OA
ENDBRANCH  10  11
BRANCH  10  14
ATOM     14  CB  THR A   4       6.842  -3.429 -13.694  0.00  0.00    +0.149 C 
ATOM     15  CG2 THR A   4       6.327  -4.492 -14.655  0.00  0.00    +0.041 C 
BRANCH  14  16
ATOM     16  OG1 THR A   4       5.685  -2.970 -12.970  0.00  0.00    -0.389 OA
ATOM     17  H   THR A   4       6.066  -2.497 -12.179  0.00  0.00    +0.210 HD
ENDBRANCH  14  16
ENDBRANCH  10  14
ENDBRANCH   8  10
ENDBRANCH   5   6
BRANCH   5  18
ATOM     18  CB  THR A   3       6.789  -7.484  -9.420  0.00  0.00    +0.141 C 
ATOM     19  CG2 THR A   3       6.617  -7.786  -7.932  0.00  0.00    +0.040 C 
BRANCH  18  20
ATOM     20  OG1 THR A   3       5.936  -8.375 -10.164  0.00  0.00    -0.390 OA
ATOM     21  H   THR A   3       5.021  -8.191  -9.877  0.00  0.00    +0.210 HD
ENDBRANCH  18  20
ENDBRANCH   5  18
ENDBRANCH   3   5
BRANCH   1  22
ATOM     22  CA  ASP A   2       2.831  -4.804  -9.562  0.00  0.00    +0.175 C 
BRANCH  22  25
ATOM     23  C   ILE A   1       1.238  -5.013  -7.705  0.00  0.00    +0.199 C 
ATOM     24  O   ILE A   1       1.210  -6.220  -7.838  0.00  0.00    -0.278 OA
ATOM     25  N   ASP A   2       2.090  -4.200  -8.428  0.00  0.00    -0.304 N 
ATOM     26  H   ASP A   2       1.597  -3.373  -8.812  0.00  0.00    +0.149 HD
BRANCH  23  27
ATOM     27  CA  ILE A   1       0.416  -4.269  -6.633  0.00  0.00    +0.016 C 
BRANCH  27  28
ATOM     28  N   ILE A   1       0.804  -2.809  -6.697  0.00  0.00    +0.386 N 
ATOM     29  H   ILE A   1       1.827  -2.759  -6.608  0.00  0.00    -0.089 HD
ATOM     30  H   ILE A   1       0.386  -2.240  -5.962  0.00  0.00    -0.089 HD
ATOM     31  H   ILE A   1       0.570  -2.441  -7.628  0.00  0.00    -0.089 HD
ENDBRANCH  27  28
BRANCH  27  32
ATOM     32  CB  ILE A   1      -1.111  -4.428  -6.807  0.00  0.00    -0.020 C 
ATOM     33  CG2 ILE A   1      -1.677  -5.167  -5.582  0.00  0.00    +0.006 C 
BRANCH  32  34
ATOM     34  CG1 ILE A   1      -1.826  -3.067  -6.980  0.00  0.00    -0.001 C 
ATOM     35  CD1 ILE A   1      -3.345  -3.180  -7.033  0.00  0.00    +0.004 C 
ENDBRANCH  32  34
ENDBRANCH  27  32
ENDBRANCH  23  27
ENDBRANCH  22  25
BRANCH  22  36
ATOM     36  CB  ASP A   2       2.575  -4.005 -10.832  0.00  0.00    +0.189 C 
BRANCH  36  37
ATOM     37  CG  ASP A   2       2.526  -4.879 -12.084  0.00  0.00    +0.236 C 
ATOM     38  OD1 ASP A   2       3.638  -5.023 -12.688  0.00  0.00    -0.205 OA
ATOM     39  OD2 ASP A   2       1.427  -5.450 -12.299  0.00  0.00    -0.205 OA
ENDBRANCH  36  37
ENDBRANCH  22  36
ENDBRANCH   1  22
TORSDOF 16
ENDMDL
MODEL 4
REMARK minimizedAffinity -7.1488719
REMARK minimizedRMSD -1
REMARK  Name = IDTT_min.pdb
REMARK  20 active torsions:
REMARK  status: ('A' for Active; 'I' for Inactive)
REMARK    1  A    between atoms: N_1  and  CA_2
REMARK    2  A    between atoms: CA_2  and  C_3
REMARK    3  A    between atoms: CA_2  and  CB_5
REMARK    4  A    between atoms: CB_5  and  CG1_6
REMARK    5  A    between atoms: CB_5  and  CG2_7
REMARK    6  A    between atoms: CG1_6  and  CD1_8
REMARK    7  A    between atoms: N_9  and  CA_10
REMARK    8  A    between atoms: CA_10  and  C_11
REMARK    9  A    between atoms: CA_10  and  CB_13
REMARK   10  A    between atoms: CB_13  and  CG_14
REMARK   11  A    between atoms: N_17  and  CA_18
REMARK   12  A    between atoms: CA_18  and  C_19
REMARK   13  A    between atoms: CA_18  and  CB_21
REMARK   14  A    between atoms: CB_21  and  OG1_22
REMARK   15  A    between atoms: CB_21  and  CG2_23
REMARK   16  A    between atoms: N_24  and  CA_25
REMARK   17  A    between atoms: CA_25  and  C_26
REMARK   18  A    between atoms: CA_25  and  CB_29
REMARK   19  A    between atoms: CB_29  and  OG1_30
REMARK   20  A    between atoms: CB_29  and  CG2_31
REMARK                            x       y       z     vdW  Elec       q    Type
REMARK                         _______ _______ _______ _____ _____    ______ ____
ROOT
ATOM      1  C   ASP A   2       3.221  -4.232 -11.199  0.00  0.00    +0.235 C 
ATOM      2  O   ASP A   2       3.004  -3.180 -11.787  0.00  0.00    -0.274 OA
ATOM      3  N   THR A   3       3.106  -5.464 -11.825  0.00  0.00    -0.300 N 
ATOM      4  H   THR A   3       3.826  -6.128 -11.574  0.00  0.00    +0.150 HD
ENDROOT
BRANCH   3   5
ATOM      5  CA  THR A   3       2.547  -5.574 -13.181  0.00  0.00    +0.187 C 
BRANCH   5   6
ATOM      6  C   THR A   3       1.232  -6.385 -13.209  0.00  0.00    +0.237 C 
ATOM      7  O   THR A   3       0.166  -5.847 -13.500  0.00  0.00    -0.274 OA
ATOM      8  N   THR A   4       1.415  -7.757 -13.188  0.00  0.00    -0.294 N 
ATOM      9  H   THR A   4       2.035  -8.059 -12.435  0.00  0.00    +0.150 HD
BRANCH   8  10
ATOM     10  CA  THR A   4       0.254  -8.660 -13.341  0.00  0.00    +0.241 C 
BRANCH  10  11
ATOM     11  C   THR A   4       0.105  -9.734 -12.229  0.00  0.00    +0.257 C 
ATOM     12  O   THR A   4       0.987  -9.720 -11.327  0.00  0.00    -0.203 OA
ATOM     13  OXT THR A   4      -0.962 -10.415 -12.317  0.00  0.00    -0.203 OA
ENDBRANCH  10  11
BRANCH  10  14
ATOM     14  CB  THR A   4       0.389  -9.534 -14.608  0.00  0.00    +0.149 C 
ATOM     15  CG2 THR A   4       1.140  -8.813 -15.720  0.00  0.00    +0.041 C 
BRANCH  14  16
ATOM     16  OG1 THR A   4       1.137 -10.738 -14.354  0.00  0.00    -0.389 OA
ATOM     17  H   THR A   4       0.804 -11.046 -13.465  0.00  0.00    +0.210 HD
ENDBRANCH  14  16
ENDBRANCH  10  14
ENDBRANCH   8  10
ENDBRANCH   5   6
BRANCH   5  18
ATOM     18  CB  THR A   3       3.565  -6.315 -14.083  0.00  0.00    +0.141 C 
ATOM     19  CG2 THR A   3       4.661  -5.427 -14.671  0.00  0.00    +0.040 C 
BRANCH  18  20
ATOM     20  OG1 THR A   3       4.194  -7.372 -13.332  0.00  0.00    -0.390 OA
ATOM     21  H   THR A   3       4.710  -6.942 -12.623  0.00  0.00    +0.210 HD
ENDBRANCH  18  20
ENDBRANCH   5  18
ENDBRANCH   3   5
BRANCH   1  22
ATOM     22  CA  ASP A   2       3.803  -4.298  -9.763  0.00  0.00    +0.175 C 
BRANCH  22  25
ATOM     23  C   ILE A   1       2.242  -3.382  -8.104  0.00  0.00    +0.199 C 
ATOM     24  O   ILE A   1       2.507  -2.249  -8.449  0.00  0.00    -0.278 OA
ATOM     25  N   ASP A   2       2.735  -4.498  -8.753  0.00  0.00    -0.304 N 
ATOM     26  H   ASP A   2       3.097  -5.202  -8.085  0.00  0.00    +0.149 HD
BRANCH  23  27
ATOM     27  CA  ILE A   1       1.232  -3.702  -6.983  0.00  0.00    +0.016 C 
BRANCH  27  28
ATOM     28  N   ILE A   1       0.718  -2.385  -6.446  0.00  0.00    +0.386 N 
ATOM     29  H   ILE A   1       1.535  -1.822  -6.180  0.00  0.00    -0.089 HD
ATOM     30  H   ILE A   1       0.111  -2.480  -5.633  0.00  0.00    -0.089 HD
ATOM     31  H   ILE A   1       0.243  -1.877  -7.204  0.00  0.00    -0.089 HD
ENDBRANCH  27  28
BRANCH  27  32
ATOM     32  CB  ILE A   1       0.056  -4.589  -7.448  0.00  0.00    -0.020 C 
ATOM     33  CG2 ILE A   1       0.415  -6.064  -7.199  0.00  0.00    +0.006 C 
BRANCH  32  34
ATOM     34  CG1 ILE A   1      -1.266  -4.237  -6.724  0.00  0.00    -0.001 C 
ATOM     35  CD1 ILE A   1      -1.625  -5.210  -5.607  0.00  0.00    +0.004 C 
ENDBRANCH  32  34
ENDBRANCH  27  32
ENDBRANCH  23  27
ENDBRANCH  22  25
BRANCH  22  36
ATOM     36  CB  ASP A   2       4.813  -5.433  -9.681  0.00  0.00    +0.189 C 
BRANCH  36  37
ATOM     37  CG  ASP A   2       6.075  -5.050  -8.911  0.00  0.00    +0.236 C 
ATOM     38  OD1 ASP A   2       7.160  -5.529  -9.377  0.00  0.00    -0.205 OA
ATOM     39  OD2 ASP A   2       5.910  -4.213  -7.988  0.00  0.00    -0.205 OA
ENDBRANCH  36  37
ENDBRANCH  22  36
ENDBRANCH   1  22
TORSDOF 16
ENDMDL
MODEL 5
REMARK minimizedAffinity -7.13555574
REMARK minimizedRMSD -1
REMARK  Name = IDTT_min.pdb
REMARK  20 active torsions:
REMARK  status: ('A' for Active; 'I' for Inactive)
REMARK    1  A    between atoms: N_1  and  CA_2
REMARK    2  A    between atoms: CA_2  and  C_3
REMARK    3  A    between atoms: CA_2  and  CB_5
REMARK    4  A    between atoms: CB_5  and  CG1_6
REMARK    5  A    between atoms: CB_5  and  CG2_7
REMARK    6  A    between atoms: CG1_6  and  CD1_8
REMARK    7  A    between atoms: N_9  and  CA_10
REMARK    8  A    between atoms: CA_10  and  C_11
REMARK    9  A    between atoms: CA_10  and  CB_13
REMARK   10  A    between atoms: CB_13  and  CG_14
REMARK   11  A    between atoms: N_17  and  CA_18
REMARK   12  A    between atoms: CA_18  and  C_19
REMARK   13  A    between atoms: CA_18  and  CB_21
REMARK   14  A    between atoms: CB_21  and  OG1_22
REMARK   15  A    between atoms: CB_21  and  CG2_23
REMARK   16  A    between atoms: N_24  and  CA_25
REMARK   17  A    between atoms: CA_25  and  C_26
REMARK   18  A    between atoms: CA_25  and  CB_29
REMARK   19  A    between atoms: CB_29  and  OG1_30
REMARK   20  A    between atoms: CB_29  and  CG2_31
REMARK                            x       y       z     vdW  Elec       q    Type
REMARK                         _______ _______ _______ _____ _____    ______ ____
ROOT
ATOM      1  C   ASP A   2       3.575  -6.260  -9.939  0.00  0.00    +0.235 C 
ATOM      2  O   ASP A   2       3.803  -7.457 -10.065  0.00  0.00    -0.274 OA
ATOM      3  N   THR A   3       4.583  -5.341  -9.687  0.00  0.00    -0.300 N 
ATOM      4  H   THR A   3       4.486  -4.469 -10.188  0.00  0.00    +0.150 HD
ENDROOT
BRANCH   3   5
ATOM      5  CA  THR A   3       5.953  -5.784  -9.386  0.00  0.00    +0.187 C 
BRANCH   5   6
ATOM      6  C   THR A   3       6.266  -5.735  -7.875  0.00  0.00    +0.237 C 
ATOM      7  O   THR A   3       5.851  -4.813  -7.174  0.00  0.00    -0.274 OA
ATOM      8  N   THR A   4       6.759  -6.923  -7.361  0.00  0.00    -0.294 N 
ATOM      9  H   THR A   4       7.542  -7.289  -7.903  0.00  0.00    +0.150 HD
BRANCH   8  10
ATOM     10  CA  THR A   4       6.982  -7.063  -5.906  0.00  0.00    +0.241 C 
BRANCH  10  11
ATOM     11  C   THR A   4       8.228  -7.899  -5.509  0.00  0.00    +0.257 C 
ATOM     12  O   THR A   4       8.605  -8.760  -6.349  0.00  0.00    -0.203 OA
ATOM     13  OXT THR A   4       8.775  -7.518  -4.429  0.00  0.00    -0.203 OA
ENDBRANCH  10  11
BRANCH  10  14
ATOM     14  CB  THR A   4       5.840  -7.863  -5.241  0.00  0.00    +0.149 C 
ATOM     15  CG2 THR A   4       4.862  -8.421  -6.268  0.00  0.00    +0.041 C 
BRANCH  14  16
ATOM     16  OG1 THR A   4       6.334  -9.006  -4.518  0.00  0.00    -0.389 OA
ATOM     17  H   THR A   4       7.152  -8.667  -4.059  0.00  0.00    +0.210 HD
ENDBRANCH  14  16
ENDBRANCH  10  14
ENDBRANCH   8  10
ENDBRANCH   5   6
BRANCH   5  18
ATOM     18  CB  THR A   3       6.952  -4.836 -10.096  0.00  0.00    +0.141 C 
ATOM     19  CG2 THR A   3       6.415  -4.177 -11.366  0.00  0.00    +0.040 C 
BRANCH  18  20
ATOM     20  OG1 THR A   3       7.358  -3.796  -9.184  0.00  0.00    -0.390 OA
ATOM     21  H   THR A   3       6.560  -3.267  -8.990  0.00  0.00    +0.210 HD
ENDBRANCH  18  20
ENDBRANCH   5  18
ENDBRANCH   3   5
BRANCH   1  22
ATOM     22  CA  ASP A   2       2.186  -5.627 -10.208  0.00  0.00    +0.175 C 
BRANCH  22  25
ATOM     23  C   ILE A   1       1.136  -5.478  -7.993  0.00  0.00    +0.199 C 
ATOM     24  O   ILE A   1       1.147  -6.687  -7.884  0.00  0.00    -0.278 OA
ATOM     25  N   ASP A   2       1.726  -4.816  -9.054  0.00  0.00    -0.304 N 
ATOM     26  H   ASP A   2       1.103  -4.085  -9.444  0.00  0.00    +0.149 HD
BRANCH  23  27
ATOM     27  CA  ILE A   1       0.574  -4.543  -6.903  0.00  0.00    +0.016 C 
BRANCH  27  28
ATOM     28  N   ILE A   1       1.109  -3.156  -7.175  0.00  0.00    +0.386 N 
ATOM     29  H   ILE A   1       2.132  -3.227  -7.235  0.00  0.00    -0.089 HD
ATOM     30  H   ILE A   1       0.873  -2.475  -6.454  0.00  0.00    -0.089 HD
ATOM     31  H   ILE A   1       0.780  -2.845  -8.099  0.00  0.00    -0.089 HD
ENDBRANCH  27  28
BRANCH  27  32
ATOM     32  CB  ILE A   1      -0.970  -4.523  -6.846  0.00  0.00    -0.020 C 
ATOM     33  CG2 ILE A   1      -1.427  -5.145  -5.515  0.00  0.00    +0.006 C 
BRANCH  32  34
ATOM     34  CG1 ILE A   1      -1.543  -3.092  -6.984  0.00  0.00    -0.001 C 
ATOM     35  CD1 ILE A   1      -3.065  -3.038  -6.926  0.00  0.00    +0.004 C 
ENDBRANCH  32  34
ENDBRANCH  27  32
ENDBRANCH  23  27
ENDBRANCH  22  25
BRANCH  22  36
ATOM     36  CB  ASP A   2       2.263  -4.756 -11.454  0.00  0.00    +0.189 C 
BRANCH  36  37
ATOM     37  CG  ASP A   2       1.939  -5.522 -12.735  0.00  0.00    +0.236 C 
ATOM     38  OD1 ASP A   2       0.726  -5.894 -12.851  0.00  0.00    -0.205 OA
ATOM     39  OD2 ASP A   2       2.872  -5.588 -13.574  0.00  0.00    -0.205 OA
ENDBRANCH  36  37
ENDBRANCH  22  36
ENDBRANCH   1  22
TORSDOF 16
ENDMDL
MODEL 6
REMARK minimizedAffinity -7.10813618
REMARK minimizedRMSD -1
REMARK  Name = IDTT_min.pdb
REMARK  20 active torsions:
REMARK  status: ('A' for Active; 'I' for Inactive)
REMARK    1  A    between atoms: N_1  and  CA_2
REMARK    2  A    between atoms: CA_2  and  C_3
REMARK    3  A    between atoms: CA_2  and  CB_5
REMARK    4  A    between atoms: CB_5  and  CG1_6
REMARK    5  A    between atoms: CB_5  and  CG2_7
REMARK    6  A    between atoms: CG1_6  and  CD1_8
REMARK    7  A    between atoms: N_9  and  CA_10
REMARK    8  A    between atoms: CA_10  and  C_11
REMARK    9  A    between atoms: CA_10  and  CB_13
REMARK   10  A    between atoms: CB_13  and  CG_14
REMARK   11  A    between atoms: N_17  and  CA_18
REMARK   12  A    between atoms: CA_18  and  C_19
REMARK   13  A    between atoms: CA_18  and  CB_21
REMARK   14  A    between atoms: CB_21  and  OG1_22
REMARK   15  A    between atoms: CB_21  and  CG2_23
REMARK   16  A    between atoms: N_24  and  CA_25
REMARK   17  A    between atoms: CA_25  and  C_26
REMARK   18  A    between atoms: CA_25  and  CB_29
REMARK   19  A    between atoms: CB_29  and  OG1_30
REMARK   20  A    between atoms: CB_29  and  CG2_31
REMARK                            x       y       z     vdW  Elec       q    Type
REMARK                         _______ _______ _______ _____ _____    ______ ____
ROOT
ATOM      1  C   ASP A   2       5.728  -4.175 -13.023  0.00  0.00    +0.235 C 
ATOM      2  O   ASP A   2       5.625  -2.960 -13.133  0.00  0.00    -0.274 OA
ATOM      3  N   THR A   3       4.684  -4.964 -12.563  0.00  0.00    -0.300 N 
ATOM      4  H   THR A   3       4.579  -5.842 -13.052  0.00  0.00    +0.150 HD
ENDROOT
BRANCH   3   5
ATOM      5  CA  THR A   3       3.460  -4.357 -12.019  0.00  0.00    +0.187 C 
BRANCH   5   6
ATOM      6  C   THR A   3       3.601  -3.989 -10.525  0.00  0.00    +0.237 C 
ATOM      7  O   THR A   3       2.933  -3.081 -10.034  0.00  0.00    -0.274 OA
ATOM      8  N   THR A   4       4.277  -4.934  -9.772  0.00  0.00    -0.294 N 
ATOM      9  H   THR A   4       5.171  -5.200 -10.187  0.00  0.00    +0.150 HD
BRANCH   8  10
ATOM     10  CA  THR A   4       4.375  -4.777  -8.305  0.00  0.00    +0.241 C 
BRANCH  10  11
ATOM     11  C   THR A   4       5.689  -5.311  -7.673  0.00  0.00    +0.257 C 
ATOM     12  O   THR A   4       6.689  -4.546  -7.750  0.00  0.00    -0.203 OA
ATOM     13  OXT THR A   4       5.548  -6.410  -7.056  0.00  0.00    -0.203 OA
ENDBRANCH  10  11
BRANCH  10  14
ATOM     14  CB  THR A   4       3.308  -5.627  -7.580  0.00  0.00    +0.149 C 
ATOM     15  CG2 THR A   4       2.124  -4.787  -7.122  0.00  0.00    +0.041 C 
BRANCH  14  16
ATOM     16  OG1 THR A   4       2.753  -6.641  -8.440  0.00  0.00    -0.389 OA
ATOM     17  H   THR A   4       3.542  -6.994  -8.937  0.00  0.00    +0.210 HD
ENDBRANCH  14  16
ENDBRANCH  10  14
ENDBRANCH   8  10
ENDBRANCH   5   6
BRANCH   5  18
ATOM     18  CB  THR A   3       2.301  -5.379 -12.134  0.00  0.00    +0.141 C 
ATOM     19  CG2 THR A   3       2.733  -6.791 -12.529  0.00  0.00    +0.040 C 
BRANCH  18  20
ATOM     20  OG1 THR A   3       1.600  -5.456 -10.877  0.00  0.00    -0.390 OA
ATOM     21  H   THR A   3       2.231  -5.820 -10.227  0.00  0.00    +0.210 HD
ENDBRANCH  18  20
ENDBRANCH   5  18
ENDBRANCH   3   5
BRANCH   1  22
ATOM     22  CA  ASP A   2       6.954  -4.973 -13.535  0.00  0.00    +0.175 C 
BRANCH  22  25
ATOM     23  C   ILE A   1       7.349  -4.672 -15.940  0.00  0.00    +0.199 C 
ATOM     24  O   ILE A   1       6.444  -5.436 -16.205  0.00  0.00    -0.278 OA
ATOM     25  N   ASP A   2       7.634  -4.269 -14.649  0.00  0.00    -0.304 N 
ATOM     26  H   ASP A   2       8.649  -4.319 -14.447  0.00  0.00    +0.149 HD
BRANCH  23  27
ATOM     27  CA  ILE A   1       8.199  -3.973 -17.020  0.00  0.00    +0.016 C 
BRANCH  27  28
ATOM     28  N   ILE A   1       7.397  -3.977 -18.301  0.00  0.00    +0.386 N 
ATOM     29  H   ILE A   1       7.125  -4.950 -18.490  0.00  0.00    -0.089 HD
ATOM     30  H   ILE A   1       7.908  -3.620 -19.108  0.00  0.00    -0.089 HD
ATOM     31  H   ILE A   1       6.526  -3.450 -18.153  0.00  0.00    -0.089 HD
ENDBRANCH  27  28
BRANCH  27  32
ATOM     32  CB  ILE A   1       8.606  -2.530 -16.645  0.00  0.00    -0.020 C 
ATOM     33  CG2 ILE A   1       9.948  -2.199 -17.320  0.00  0.00    +0.006 C 
BRANCH  32  34
ATOM     34  CG1 ILE A   1       7.535  -1.492 -17.059  0.00  0.00    -0.001 C 
ATOM     35  CD1 ILE A   1       8.071  -0.398 -17.976  0.00  0.00    +0.004 C 
ENDBRANCH  32  34
ENDBRANCH  27  32
ENDBRANCH  23  27
ENDBRANCH  22  25
BRANCH  22  36
ATOM     36  CB  ASP A   2       7.929  -5.189 -12.387  0.00  0.00    +0.189 C 
BRANCH  36  37
ATOM     37  CG  ASP A   2       9.187  -4.331 -12.507  0.00  0.00    +0.236 C 
ATOM     38  OD1 ASP A   2      10.180  -4.900 -13.067  0.00  0.00    -0.205 OA
ATOM     39  OD2 ASP A   2       9.057  -3.131 -12.153  0.00  0.00    -0.205 OA
ENDBRANCH  36  37
ENDBRANCH  22  36
ENDBRANCH   1  22
TORSDOF 16
ENDMDL
MODEL 7
REMARK minimizedAffinity -7.0612731
REMARK minimizedRMSD -1
REMARK  Name = IDTT_min.pdb
REMARK  20 active torsions:
REMARK  status: ('A' for Active; 'I' for Inactive)
REMARK    1  A    between atoms: N_1  and  CA_2
REMARK    2  A    between atoms: CA_2  and  C_3
REMARK    3  A    between atoms: CA_2  and  CB_5
REMARK    4  A    between atoms: CB_5  and  CG1_6
REMARK    5  A    between atoms: CB_5  and  CG2_7
REMARK    6  A    between atoms: CG1_6  and  CD1_8
REMARK    7  A    between atoms: N_9  and  CA_10
REMARK    8  A    between atoms: CA_10  and  C_11
REMARK    9  A    between atoms: CA_10  and  CB_13
REMARK   10  A    between atoms: CB_13  and  CG_14
REMARK   11  A    between atoms: N_17  and  CA_18
REMARK   12  A    between atoms: CA_18  and  C_19
REMARK   13  A    between atoms: CA_18  and  CB_21
REMARK   14  A    between atoms: CB_21  and  OG1_22
REMARK   15  A    between atoms: CB_21  and  CG2_23
REMARK   16  A    between atoms: N_24  and  CA_25
REMARK   17  A    between atoms: CA_25  and  C_26
REMARK   18  A    between atoms: CA_25  and  CB_29
REMARK   19  A    between atoms: CB_29  and  OG1_30
REMARK   20  A    between atoms: CB_29  and  CG2_31
REMARK                            x       y       z     vdW  Elec       q    Type
REMARK                         _______ _______ _______ _____ _____    ______ ____
ROOT
ATOM      1  C   ASP A   2       6.069  -3.924 -12.294  0.00  0.00    +0.235 C 
ATOM      2  O   ASP A   2       5.805  -3.009 -13.064  0.00  0.00    -0.274 OA
ATOM      3  N   THR A   3       7.341  -4.103 -11.772  0.00  0.00    -0.300 N 
ATOM      4  H   THR A   3       7.358  -4.375 -10.799  0.00  0.00    +0.150 HD
ENDROOT
BRANCH   3   5
ATOM      5  CA  THR A   3       8.477  -3.304 -12.257  0.00  0.00    +0.187 C 
BRANCH   5   6
ATOM      6  C   THR A   3       8.885  -3.679 -13.699  0.00  0.00    +0.237 C 
ATOM      7  O   THR A   3       8.991  -4.856 -14.038  0.00  0.00    -0.274 OA
ATOM      8  N   THR A   4       8.812  -2.629 -14.597  0.00  0.00    -0.294 N 
ATOM      9  H   THR A   4       9.299  -1.794 -14.266  0.00  0.00    +0.150 HD
BRANCH   8  10
ATOM     10  CA  THR A   4       9.048  -2.869 -16.037  0.00  0.00    +0.241 C 
BRANCH  10  11
ATOM     11  C   THR A   4      10.062  -1.904 -16.707  0.00  0.00    +0.257 C 
ATOM     12  O   THR A   4      10.089  -0.728 -16.252  0.00  0.00    -0.203 OA
ATOM     13  OXT THR A   4      10.819  -2.468 -17.556  0.00  0.00    -0.203 OA
ENDBRANCH  10  11
BRANCH  10  14
ATOM     14  CB  THR A   4       7.770  -2.608 -16.864  0.00  0.00    +0.149 C 
ATOM     15  CG2 THR A   4       6.718  -3.689 -16.645  0.00  0.00    +0.041 C 
BRANCH  14  16
ATOM     16  OG1 THR A   4       7.134  -1.370 -16.494  0.00  0.00    -0.389 OA
ATOM     17  H   THR A   4       7.893  -0.734 -16.377  0.00  0.00    +0.210 HD
ENDBRANCH  14  16
ENDBRANCH  10  14
ENDBRANCH   8  10
ENDBRANCH   5   6
BRANCH   5  18
ATOM     18  CB  THR A   3       9.702  -3.574 -11.346  0.00  0.00    +0.141 C 
ATOM     19  CG2 THR A   3      10.902  -2.664 -11.605  0.00  0.00    +0.040 C 
BRANCH  18  20
ATOM     20  OG1 THR A   3       9.315  -3.429  -9.965  0.00  0.00    -0.390 OA
ATOM     21  H   THR A   3       9.074  -2.491  -9.839  0.00  0.00    +0.210 HD
ENDBRANCH  18  20
ENDBRANCH   5  18
ENDBRANCH   3   5
BRANCH   1  22
ATOM     22  CA  ASP A   2       4.994  -4.866 -11.694  0.00  0.00    +0.175 C 
BRANCH  22  25
ATOM     23  C   ILE A   1       5.741  -6.110  -9.713  0.00  0.00    +0.199 C 
ATOM     24  O   ILE A   1       6.325  -6.913 -10.411  0.00  0.00    -0.278 OA
ATOM     25  N   ASP A   2       5.131  -4.979 -10.221  0.00  0.00    -0.304 N 
ATOM     26  H   ASP A   2       4.180  -4.847  -9.831  0.00  0.00    +0.149 HD
BRANCH  23  27
ATOM     27  CA  ILE A   1       5.720  -6.198  -8.173  0.00  0.00    +0.016 C 
BRANCH  27  28
ATOM     28  N   ILE A   1       6.389  -4.952  -7.639  0.00  0.00    +0.386 N 
ATOM     29  H   ILE A   1       7.314  -4.885  -8.082  0.00  0.00    -0.089 HD
ATOM     30  H   ILE A   1       6.514  -4.953  -6.627  0.00  0.00    -0.089 HD
ATOM     31  H   ILE A   1       5.855  -4.128  -7.945  0.00  0.00    -0.089 HD
ENDBRANCH  27  28
BRANCH  27  32
ATOM     32  CB  ILE A   1       4.299  -6.341  -7.584  0.00  0.00    -0.020 C 
ATOM     33  CG2 ILE A   1       3.560  -7.463  -8.332  0.00  0.00    +0.006 C 
BRANCH  32  34
ATOM     34  CG1 ILE A   1       4.322  -6.643  -6.066  0.00  0.00    -0.001 C 
ATOM     35  CD1 ILE A   1       5.417  -7.622  -5.657  0.00  0.00    +0.004 C 
ENDBRANCH  32  34
ENDBRANCH  27  32
ENDBRANCH  23  27
ENDBRANCH  22  25
BRANCH  22  36
ATOM     36  CB  ASP A   2       3.610  -4.340 -12.047  0.00  0.00    +0.189 C 
BRANCH  36  37
ATOM     37  CG  ASP A   2       2.707  -4.179 -10.825  0.00  0.00    +0.236 C 
ATOM     38  OD1 ASP A   2       2.046  -5.218 -10.499  0.00  0.00    -0.205 OA
ATOM     39  OD2 ASP A   2       2.816  -3.085 -10.215  0.00  0.00    -0.205 OA
ENDBRANCH  36  37
ENDBRANCH  22  36
ENDBRANCH   1  22
TORSDOF 16
ENDMDL
MODEL 8
REMARK minimizedAffinity -7.04383945
REMARK minimizedRMSD -1
REMARK  Name = IDTT_min.pdb
REMARK  20 active torsions:
REMARK  status: ('A' for Active; 'I' for Inactive)
REMARK    1  A    between atoms: N_1  and  CA_2
REMARK    2  A    between atoms: CA_2  and  C_3
REMARK    3  A    between atoms: CA_2  and  CB_5
REMARK    4  A    between atoms: CB_5  and  CG1_6
REMARK    5  A    between atoms: CB_5  and  CG2_7
REMARK    6  A    between atoms: CG1_6  and  CD1_8
REMARK    7  A    between atoms: N_9  and  CA_10
REMARK    8  A    between atoms: CA_10  and  C_11
REMARK    9  A    between atoms: CA_10  and  CB_13
REMARK   10  A    between atoms: CB_13  and  CG_14
REMARK   11  A    between atoms: N_17  and  CA_18
REMARK   12  A    between atoms: CA_18  and  C_19
REMARK   13  A    between atoms: CA_18  and  CB_21
REMARK   14  A    between atoms: CB_21  and  OG1_22
REMARK   15  A    between atoms: CB_21  and  CG2_23
REMARK   16  A    between atoms: N_24  and  CA_25
REMARK   17  A    between atoms: CA_25  and  C_26
REMARK   18  A    between atoms: CA_25  and  CB_29
REMARK   19  A    between atoms: CB_29  and  OG1_30
REMARK   20  A    between atoms: CB_29  and  CG2_31
REMARK                            x       y       z     vdW  Elec       q    Type
REMARK                         _______ _______ _______ _____ _____    ______ ____
ROOT
ATOM      1  C   ASP A   2       5.870  -3.843 -12.746  0.00  0.00    +0.235 C 
ATOM      2  O   ASP A   2       5.581  -2.732 -13.171  0.00  0.00    -0.274 OA
ATOM      3  N   THR A   3       4.927  -4.675 -12.159  0.00  0.00    -0.300 N 
ATOM      4  H   THR A   3       5.018  -5.649 -12.411  0.00  0.00    +0.150 HD
ENDROOT
BRANCH   3   5
ATOM      5  CA  THR A   3       3.571  -4.190 -11.861  0.00  0.00    +0.187 C 
BRANCH   5   6
ATOM      6  C   THR A   3       3.303  -4.092 -10.343  0.00  0.00    +0.237 C 
ATOM      7  O   THR A   3       2.595  -3.197  -9.884  0.00  0.00    -0.274 OA
ATOM      8  N   THR A   4       3.656  -5.227  -9.633  0.00  0.00    -0.294 N 
ATOM      9  H   THR A   4       4.608  -5.536  -9.835  0.00  0.00    +0.150 HD
BRANCH   8  10
ATOM     10  CA  THR A   4       3.338  -5.326  -8.192  0.00  0.00    +0.241 C 
BRANCH  10  11
ATOM     11  C   THR A   4       4.397  -6.071  -7.335  0.00  0.00    +0.257 C 
ATOM     12  O   THR A   4       5.500  -5.478  -7.182  0.00  0.00    -0.203 OA
ATOM     13  OXT THR A   4       3.963  -7.137  -6.801  0.00  0.00    -0.203 OA
ENDBRANCH  10  11
BRANCH  10  14
ATOM     14  CB  THR A   4       2.078  -6.188  -7.956  0.00  0.00    +0.149 C 
ATOM     15  CG2 THR A   4       0.827  -5.335  -7.785  0.00  0.00    +0.041 C 
BRANCH  14  16
ATOM     16  OG1 THR A   4       1.804  -7.056  -9.073  0.00  0.00    -0.389 OA
ATOM     17  H   THR A   4       2.702  -7.396  -9.340  0.00  0.00    +0.210 HD
ENDBRANCH  14  16
ENDBRANCH  10  14
ENDBRANCH   8  10
ENDBRANCH   5   6
BRANCH   5  18
ATOM     18  CB  THR A   3       2.543  -5.190 -12.447  0.00  0.00    +0.141 C 
ATOM     19  CG2 THR A   3       3.137  -6.520 -12.909  0.00  0.00    +0.040 C 
BRANCH  18  20
ATOM     20  OG1 THR A   3       1.526  -5.466 -11.464  0.00  0.00    -0.390 OA
ATOM     21  H   THR A   3       1.970  -5.923 -10.724  0.00  0.00    +0.210 HD
ENDBRANCH  18  20
ENDBRANCH   5  18
ENDBRANCH   3   5
BRANCH   1  22
ATOM     22  CA  ASP A   2       7.256  -4.502 -12.963  0.00  0.00    +0.175 C 
BRANCH  22  25
ATOM     23  C   ILE A   1       8.690  -3.390 -14.617  0.00  0.00    +0.199 C 
ATOM     24  O   ILE A   1       8.110  -3.949 -15.526  0.00  0.00    -0.278 OA
ATOM     25  N   ASP A   2       8.290  -3.494 -13.298  0.00  0.00    -0.304 N 
ATOM     26  H   ASP A   2       9.091  -3.680 -12.668  0.00  0.00    +0.149 HD
BRANCH  23  27
ATOM     27  CA  ILE A   1       9.858  -2.410 -14.846  0.00  0.00    +0.016 C 
BRANCH  27  28
ATOM     28  N   ILE A   1      10.745  -3.002 -15.916  0.00  0.00    +0.386 N 
ATOM     29  H   ILE A   1      10.996  -3.953 -15.617  0.00  0.00    -0.089 HD
ATOM     30  H   ILE A   1      11.603  -2.477 -16.079  0.00  0.00    -0.089 HD
ATOM     31  H   ILE A   1      10.202  -3.101 -16.785  0.00  0.00    -0.089 HD
ENDBRANCH  27  28
BRANCH  27  32
ATOM     32  CB  ILE A   1       9.400  -0.991 -15.250  0.00  0.00    -0.020 C 
ATOM     33  CG2 ILE A   1      10.272   0.042 -14.516  0.00  0.00    +0.006 C 
BRANCH  32  34
ATOM     34  CG1 ILE A   1       9.484  -0.762 -16.779  0.00  0.00    -0.001 C 
ATOM     35  CD1 ILE A   1       8.130  -0.819 -17.477  0.00  0.00    +0.004 C 
ENDBRANCH  32  34
ENDBRANCH  27  32
ENDBRANCH  23  27
ENDBRANCH  22  25
BRANCH  22  36
ATOM     36  CB  ASP A   2       7.657  -5.257 -11.704  0.00  0.00    +0.189 C 
BRANCH  36  37
ATOM     37  CG  ASP A   2       7.819  -4.343 -10.491  0.00  0.00    +0.236 C 
ATOM     38  OD1 ASP A   2       8.972  -3.820 -10.356  0.00  0.00    -0.205 OA
ATOM     39  OD2 ASP A   2       6.766  -4.119  -9.842  0.00  0.00    -0.205 OA
ENDBRANCH  36  37
ENDBRANCH  22  36
ENDBRANCH   1  22
TORSDOF 16
ENDMDL
MODEL 9
REMARK minimizedAffinity -7.02820492
REMARK minimizedRMSD -1
REMARK  Name = IDTT_min.pdb
REMARK  20 active torsions:
REMARK  status: ('A' for Active; 'I' for Inactive)
REMARK    1  A    between atoms: N_1  and  CA_2
REMARK    2  A    between atoms: CA_2  and  C_3
REMARK    3  A    between atoms: CA_2  and  CB_5
REMARK    4  A    between atoms: CB_5  and  CG1_6
REMARK    5  A    between atoms: CB_5  and  CG2_7
REMARK    6  A    between atoms: CG1_6  and  CD1_8
REMARK    7  A    between atoms: N_9  and  CA_10
REMARK    8  A    between atoms: CA_10  and  C_11
REMARK    9  A    between atoms: CA_10  and  CB_13
REMARK   10  A    between atoms: CB_13  and  CG_14
REMARK   11  A    between atoms: N_17  and  CA_18
REMARK   12  A    between atoms: CA_18  and  C_19
REMARK   13  A    between atoms: CA_18  and  CB_21
REMARK   14  A    between atoms: CB_21  and  OG1_22
REMARK   15  A    between atoms: CB_21  and  CG2_23
REMARK   16  A    between atoms: N_24  and  CA_25
REMARK   17  A    between atoms: CA_25  and  C_26
REMARK   18  A    between atoms: CA_25  and  CB_29
REMARK   19  A    between atoms: CB_29  and  OG1_30
REMARK   20  A    between atoms: CB_29  and  CG2_31
REMARK                            x       y       z     vdW  Elec       q    Type
REMARK                         _______ _______ _______ _____ _____    ______ ____
ROOT
ATOM      1  C   ASP A   2       3.291  -4.496 -10.103  0.00  0.00    +0.235 C 
ATOM      2  O   ASP A   2       3.015  -3.324 -10.326  0.00  0.00    -0.274 OA
ATOM      3  N   THR A   3       4.554  -5.015 -10.347  0.00  0.00    -0.300 N 
ATOM      4  H   THR A   3       4.883  -5.658  -9.640  0.00  0.00    +0.150 HD
ENDROOT
BRANCH   3   5
ATOM      5  CA  THR A   3       5.575  -4.222 -11.049  0.00  0.00    +0.187 C 
BRANCH   5   6
ATOM      6  C   THR A   3       5.309  -4.138 -12.568  0.00  0.00    +0.237 C 
ATOM      7  O   THR A   3       5.697  -3.171 -13.223  0.00  0.00    -0.274 OA
ATOM      8  N   THR A   4       4.901  -5.331 -13.138  0.00  0.00    -0.294 N 
ATOM      9  H   THR A   4       4.121  -5.758 -12.636  0.00  0.00    +0.150 HD
BRANCH   8  10
ATOM     10  CA  THR A   4       4.734  -5.432 -14.604  0.00  0.00    +0.241 C 
BRANCH  10  11
ATOM     11  C   THR A   4       3.606  -6.390 -15.073  0.00  0.00    +0.257 C 
ATOM     12  O   THR A   4       2.432  -5.933 -15.010  0.00  0.00    -0.203 OA
ATOM     13  OXT THR A   4       4.034  -7.476 -15.570  0.00  0.00    -0.203 OA
ENDBRANCH  10  11
BRANCH  10  14
ATOM     14  CB  THR A   4       5.980  -6.064 -15.264  0.00  0.00    +0.149 C 
ATOM     15  CG2 THR A   4       6.889  -5.013 -15.889  0.00  0.00    +0.041 C 
BRANCH  14  16
ATOM     16  OG1 THR A   4       6.799  -6.764 -14.308  0.00  0.00    -0.389 OA
ATOM     17  H   THR A   4       6.141  -7.239 -13.729  0.00  0.00    +0.210 HD
ENDBRANCH  14  16
ENDBRANCH  10  14
ENDBRANCH   8  10
ENDBRANCH   5   6
BRANCH   5  18
ATOM     18  CB  THR A   3       6.954  -4.903 -10.859  0.00  0.00    +0.141 C 
ATOM     19  CG2 THR A   3       6.892  -6.331 -10.317  0.00  0.00    +0.040 C 
BRANCH  18  20
ATOM     20  OG1 THR A   3       7.656  -4.927 -12.117  0.00  0.00    -0.390 OA
ATOM     21  H   THR A   3       7.141  -5.502 -12.714  0.00  0.00    +0.210 HD
ENDBRANCH  18  20
ENDBRANCH   5  18
ENDBRANCH   3   5
BRANCH   1  22
ATOM     22  CA  ASP A   2       2.328  -5.473  -9.381  0.00  0.00    +0.175 C 
BRANCH  22  25
ATOM     23  C   ILE A   1       1.643  -4.684  -7.158  0.00  0.00    +0.199 C 
ATOM     24  O   ILE A   1       2.706  -5.030  -6.685  0.00  0.00    -0.278 OA
ATOM     25  N   ASP A   2       1.370  -4.747  -8.512  0.00  0.00    -0.304 N 
ATOM     26  H   ASP A   2       0.439  -5.163  -8.697  0.00  0.00    +0.149 HD
BRANCH  23  27
ATOM     27  CA  ILE A   1       0.528  -4.025  -6.321  0.00  0.00    +0.016 C 
BRANCH  27  28
ATOM     28  N   ILE A   1       0.684  -2.528  -6.457  0.00  0.00    +0.386 N 
ATOM     29  H   ILE A   1       1.651  -2.295  -6.198  0.00  0.00    -0.089 HD
ATOM     30  H   ILE A   1       0.051  -1.992  -5.864  0.00  0.00    -0.089 HD
ATOM     31  H   ILE A   1       0.572  -2.268  -7.446  0.00  0.00    -0.089 HD
ENDBRANCH  27  28
BRANCH  27  32
ATOM     32  CB  ILE A   1      -0.895  -4.458  -6.741  0.00  0.00    -0.020 C 
ATOM     33  CG2 ILE A   1      -1.547  -5.223  -5.576  0.00  0.00    +0.006 C 
BRANCH  32  34
ATOM     34  CG1 ILE A   1      -1.779  -3.253  -7.143  0.00  0.00    -0.001 C 
ATOM     35  CD1 ILE A   1      -3.271  -3.503  -6.951  0.00  0.00    +0.004 C 
ENDBRANCH  32  34
ENDBRANCH  27  32
ENDBRANCH  23  27
ENDBRANCH  22  25
BRANCH  22  36
ATOM     36  CB  ASP A   2       1.571  -6.291 -10.417  0.00  0.00    +0.189 C 
BRANCH  36  37
ATOM     37  CG  ASP A   2       2.349  -7.518 -10.889  0.00  0.00    +0.236 C 
ATOM     38  OD1 ASP A   2       2.030  -7.950 -12.044  0.00  0.00    -0.205 OA
ATOM     39  OD2 ASP A   2       3.292  -7.878 -10.140  0.00  0.00    -0.205 OA
ENDBRANCH  36  37
ENDBRANCH  22  36
ENDBRANCH   1  22
TORSDOF 16
ENDMDL
MODEL 10
REMARK minimizedAffinity -7.01479244
REMARK minimizedRMSD -1
REMARK  Name = IDTT_min.pdb
REMARK  20 active torsions:
REMARK  status: ('A' for Active; 'I' for Inactive)
REMARK    1  A    between atoms: N_1  and  CA_2
REMARK    2  A    between atoms: CA_2  and  C_3
REMARK    3  A    between atoms: CA_2  and  CB_5
REMARK    4  A    between atoms: CB_5  and  CG1_6
REMARK    5  A    between atoms: CB_5  and  CG2_7
REMARK    6  A    between atoms: CG1_6  and  CD1_8
REMARK    7  A    between atoms: N_9  and  CA_10
REMARK    8  A    between atoms: CA_10  and  C_11
REMARK    9  A    between atoms: CA_10  and  CB_13
REMARK   10  A    between atoms: CB_13  and  CG_14
REMARK   11  A    between atoms: N_17  and  CA_18
REMARK   12  A    between atoms: CA_18  and  C_19
REMARK   13  A    between atoms: CA_18  and  CB_21
REMARK   14  A    between atoms: CB_21  and  OG1_22
REMARK   15  A    between atoms: CB_21  and  CG2_23
REMARK   16  A    between atoms: N_24  and  CA_25
REMARK   17  A    between atoms: CA_25  and  C_26
REMARK   18  A    between atoms: CA_25  and  CB_29
REMARK   19  A    between atoms: CB_29  and  OG1_30
REMARK   20  A    between atoms: CB_29  and  CG2_31
REMARK                            x       y       z     vdW  Elec       q    Type
REMARK                         _______ _______ _______ _____ _____    ______ ____
ROOT
ATOM      1  C   ASP A   2       7.140  -4.308 -11.518  0.00  0.00    +0.235 C 
ATOM      2  O   ASP A   2       7.441  -4.082 -10.353  0.00  0.00    -0.274 OA
ATOM      3  N   THR A   3       7.939  -3.902 -12.577  0.00  0.00    -0.300 N 
ATOM      4  H   THR A   3       8.013  -4.577 -13.325  0.00  0.00    +0.150 HD
ENDROOT
BRANCH   3   5
ATOM      5  CA  THR A   3       9.100  -3.027 -12.357  0.00  0.00    +0.187 C 
BRANCH   5   6
ATOM      6  C   THR A   3       9.230  -1.939 -13.446  0.00  0.00    +0.237 C 
ATOM      7  O   THR A   3       9.409  -0.761 -13.141  0.00  0.00    -0.274 OA
ATOM      8  N   THR A   4       9.432  -2.437 -14.721  0.00  0.00    -0.294 N 
ATOM      9  H   THR A   4       8.750  -3.154 -14.974  0.00  0.00    +0.150 HD
BRANCH   8  10
ATOM     10  CA  THR A   4       9.702  -1.512 -15.843  0.00  0.00    +0.241 C 
BRANCH  10  11
ATOM     11  C   THR A   4       8.441  -0.889 -16.499  0.00  0.00    +0.257 C 
ATOM     12  O   THR A   4       7.361  -1.516 -16.326  0.00  0.00    -0.203 OA
ATOM     13  OXT THR A   4       8.650   0.244 -17.030  0.00  0.00    -0.203 OA
ENDBRANCH  10  11
BRANCH  10  14
ATOM     14  CB  THR A   4      10.345  -2.254 -17.035  0.00  0.00    +0.149 C 
ATOM     15  CG2 THR A   4      10.769  -3.670 -16.665  0.00  0.00    +0.041 C 
BRANCH  14  16
ATOM     16  OG1 THR A   4       9.427  -2.400 -18.136  0.00  0.00    -0.389 OA
ATOM     17  H   THR A   4       8.960  -1.521 -18.179  0.00  0.00    +0.210 HD
ENDBRANCH  14  16
ENDBRANCH  10  14
ENDBRANCH   8  10
ENDBRANCH   5   6
BRANCH   5  18
ATOM     18  CB  THR A   3      10.389  -3.885 -12.406  0.00  0.00    +0.141 C 
ATOM     19  CG2 THR A   3      10.902  -4.346 -11.043  0.00  0.00    +0.040 C 
BRANCH  18  20
ATOM     20  OG1 THR A   3      10.160  -5.051 -13.221  0.00  0.00    -0.390 OA
ATOM     21  H   THR A   3       9.485  -5.586 -12.760  0.00  0.00    +0.210 HD
ENDBRANCH  18  20
ENDBRANCH   5  18
ENDBRANCH   3   5
BRANCH   1  22
ATOM     22  CA  ASP A   2       5.943  -5.202 -11.928  0.00  0.00    +0.175 C 
BRANCH  22  25
ATOM     23  C   ILE A   1       4.033  -5.327 -10.389  0.00  0.00    +0.199 C 
ATOM     24  O   ILE A   1       4.569  -6.219  -9.764  0.00  0.00    -0.278 OA
ATOM     25  N   ASP A   2       4.659  -4.656 -11.423  0.00  0.00    -0.304 N 
ATOM     26  H   ASP A   2       4.040  -4.561 -12.249  0.00  0.00    +0.149 HD
BRANCH  23  27
ATOM     27  CA  ILE A   1       2.646  -4.762 -10.022  0.00  0.00    +0.016 C 
BRANCH  27  28
ATOM     28  N   ILE A   1       1.609  -5.619 -10.711  0.00  0.00    +0.386 N 
ATOM     29  H   ILE A   1       1.845  -5.643 -11.711  0.00  0.00    -0.089 HD
ATOM     30  H   ILE A   1       0.656  -5.274 -10.610  0.00  0.00    -0.089 HD
ATOM     31  H   ILE A   1       1.691  -6.585 -10.365  0.00  0.00    -0.089 HD
ENDBRANCH  27  28
BRANCH  27  32
ATOM     32  CB  ILE A   1       2.383  -4.717  -8.500  0.00  0.00    -0.020 C 
ATOM     33  CG2 ILE A   1       2.032  -3.275  -8.097  0.00  0.00    +0.006 C 
BRANCH  32  34
ATOM     34  CG1 ILE A   1       1.245  -5.677  -8.074  0.00  0.00    -0.001 C 
ATOM     35  CD1 ILE A   1       0.142  -4.995  -7.272  0.00  0.00    +0.004 C 
ENDBRANCH  32  34
ENDBRANCH  27  32
ENDBRANCH  23  27
ENDBRANCH  22  25
BRANCH  22  36
ATOM     36  CB  ASP A   2       5.896  -5.316 -13.445  0.00  0.00    +0.189 C 
BRANCH  36  37
ATOM     37  CG  ASP A   2       4.699  -6.124 -13.943  0.00  0.00    +0.236 C 
ATOM     38  OD1 ASP A   2       4.480  -7.211 -13.316  0.00  0.00    -0.205 OA
ATOM     39  OD2 ASP A   2       4.002  -5.565 -14.827  0.00  0.00    -0.205 OA
ENDBRANCH  36  37
ENDBRANCH  22  36
ENDBRANCH   1  22
TORSDOF 16
ENDMDL
MODEL 11
REMARK minimizedAffinity -6.94367218
REMARK minimizedRMSD -1
REMARK  Name = IDTT_min.pdb
REMARK  20 active torsions:
REMARK  status: ('A' for Active; 'I' for Inactive)
REMARK    1  A    between atoms: N_1  and  CA_2
REMARK    2  A    between atoms: CA_2  and  C_3
REMARK    3  A    between atoms: CA_2  and  CB_5
REMARK    4  A    between atoms: CB_5  and  CG1_6
REMARK    5  A    between atoms: CB_5  and  CG2_7
REMARK    6  A    between atoms: CG1_6  and  CD1_8
REMARK    7  A    between atoms: N_9  and  CA_10
REMARK    8  A    between atoms: CA_10  and  C_11
REMARK    9  A    between atoms: CA_10  and  CB_13
REMARK   10  A    between atoms: CB_13  and  CG_14
REMARK   11  A    between atoms: N_17  and  CA_18
REMARK   12  A    between atoms: CA_18  and  C_19
REMARK   13  A    between atoms: CA_18  and  CB_21
REMARK   14  A    between atoms: CB_21  and  OG1_22
REMARK   15  A    between atoms: CB_21  and  CG2_23
REMARK   16  A    between atoms: N_24  and  CA_25
REMARK   17  A    between atoms: CA_25  and  C_26
REMARK   18  A    between atoms: CA_25  and  CB_29
REMARK   19  A    between atoms: CB_29  and  OG1_30
REMARK   20  A    between atoms: CB_29  and  CG2_31
REMARK                            x       y       z     vdW  Elec       q    Type
REMARK                         _______ _______ _______ _____ _____    ______ ____
ROOT
ATOM      1  C   ASP A   2       6.385  -3.943 -13.268  0.00  0.00    +0.235 C 
ATOM      2  O   ASP A   2       5.808  -2.863 -13.258  0.00  0.00    -0.274 OA
ATOM      3  N   THR A   3       5.697  -5.146 -13.206  0.00  0.00    -0.300 N 
ATOM      4  H   THR A   3       6.068  -5.870 -13.805  0.00  0.00    +0.150 HD
ENDROOT
BRANCH   3   5
ATOM      5  CA  THR A   3       4.249  -5.177 -12.948  0.00  0.00    +0.187 C 
BRANCH   5   6
ATOM      6  C   THR A   3       3.920  -5.621 -11.505  0.00  0.00    +0.237 C 
ATOM      7  O   THR A   3       3.878  -6.813 -11.207  0.00  0.00    -0.274 OA
ATOM      8  N   THR A   4       3.988  -4.602 -10.571  0.00  0.00    -0.294 N 
ATOM      9  H   THR A   4       3.454  -3.778 -10.850  0.00  0.00    +0.150 HD
BRANCH   8  10
ATOM     10  CA  THR A   4       3.825  -4.904  -9.133  0.00  0.00    +0.241 C 
BRANCH  10  11
ATOM     11  C   THR A   4       2.854  -3.964  -8.369  0.00  0.00    +0.257 C 
ATOM     12  O   THR A   4       2.582  -2.871  -8.938  0.00  0.00    -0.203 OA
ATOM     13  OXT THR A   4       2.368  -4.479  -7.316  0.00  0.00    -0.203 OA
ENDBRANCH  10  11
BRANCH  10  14
ATOM     14  CB  THR A   4       5.146  -4.687  -8.363  0.00  0.00    +0.149 C 
ATOM     15  CG2 THR A   4       5.690  -5.987  -7.785  0.00  0.00    +0.041 C 
BRANCH  14  16
ATOM     16  OG1 THR A   4       6.188  -4.178  -9.217  0.00  0.00    -0.389 OA
ATOM     17  H   THR A   4       5.726  -3.501  -9.785  0.00  0.00    +0.210 HD
ENDBRANCH  14  16
ENDBRANCH  10  14
ENDBRANCH   8  10
ENDBRANCH   5   6
BRANCH   5  18
ATOM     18  CB  THR A   3       3.592  -6.201 -13.907  0.00  0.00    +0.141 C 
ATOM     19  CG2 THR A   3       2.154  -5.872 -14.306  0.00  0.00    +0.040 C 
BRANCH  18  20
ATOM     20  OG1 THR A   3       4.381  -6.310 -15.108  0.00  0.00    -0.390 OA
ATOM     21  H   THR A   3       4.335  -5.441 -15.552  0.00  0.00    +0.210 HD
ENDBRANCH  18  20
ENDBRANCH   5  18
ENDBRANCH   3   5
BRANCH   1  22
ATOM     22  CA  ASP A   2       7.907  -4.091 -13.518  0.00  0.00    +0.175 C 
BRANCH  22  25
ATOM     23  C   ILE A   1       8.046  -4.489 -15.937  0.00  0.00    +0.199 C 
ATOM     24  O   ILE A   1       7.388  -5.504 -15.828  0.00  0.00    -0.278 OA
ATOM     25  N   ASP A   2       8.282  -3.633 -14.878  0.00  0.00    -0.304 N 
ATOM     26  H   ASP A   2       9.278  -3.353 -14.825  0.00  0.00    +0.149 HD
BRANCH  23  27
ATOM     27  CA  ILE A   1       8.586  -3.981 -17.289  0.00  0.00    +0.016 C 
BRANCH  27  28
ATOM     28  N   ILE A   1       7.409  -3.853 -18.228  0.00  0.00    +0.386 N 
ATOM     29  H   ILE A   1       6.924  -4.758 -18.239  0.00  0.00    -0.089 HD
ATOM     30  H   ILE A   1       7.668  -3.612 -19.184  0.00  0.00    -0.089 HD
ATOM     31  H   ILE A   1       6.746  -3.167 -17.842  0.00  0.00    -0.089 HD
ENDBRANCH  27  28
BRANCH  27  32
ATOM     32  CB  ILE A   1       9.341  -2.637 -17.185  0.00  0.00    -0.020 C 
ATOM     33  CG2 ILE A   1      10.725  -2.791 -17.839  0.00  0.00    +0.006 C 
BRANCH  32  34
ATOM     34  CG1 ILE A   1       8.566  -1.477 -17.854  0.00  0.00    -0.001 C 
ATOM     35  CD1 ILE A   1       8.657  -0.162 -17.087  0.00  0.00    +0.004 C 
ENDBRANCH  32  34
ENDBRANCH  27  32
ENDBRANCH  23  27
ENDBRANCH  22  25
BRANCH  22  36
ATOM     36  CB  ASP A   2       8.669  -3.288 -12.473  0.00  0.00    +0.189 C 
BRANCH  36  37
ATOM     37  CG  ASP A   2       9.578  -2.225 -13.088  0.00  0.00    +0.236 C 
ATOM     38  OD1 ASP A   2      10.797  -2.568 -13.223  0.00  0.00    -0.205 OA
ATOM     39  OD2 ASP A   2       8.995  -1.190 -13.499  0.00  0.00    -0.205 OA
ENDBRANCH  36  37
ENDBRANCH  22  36
ENDBRANCH   1  22
TORSDOF 16
ENDMDL
MODEL 12
REMARK minimizedAffinity -6.90593815
REMARK minimizedRMSD -1
REMARK  Name = IDTT_min.pdb
REMARK  20 active torsions:
REMARK  status: ('A' for Active; 'I' for Inactive)
REMARK    1  A    between atoms: N_1  and  CA_2
REMARK    2  A    between atoms: CA_2  and  C_3
REMARK    3  A    between atoms: CA_2  and  CB_5
REMARK    4  A    between atoms: CB_5  and  CG1_6
REMARK    5  A    between atoms: CB_5  and  CG2_7
REMARK    6  A    between atoms: CG1_6  and  CD1_8
REMARK    7  A    between atoms: N_9  and  CA_10
REMARK    8  A    between atoms: CA_10  and  C_11
REMARK    9  A    between atoms: CA_10  and  CB_13
REMARK   10  A    between atoms: CB_13  and  CG_14
REMARK   11  A    between atoms: N_17  and  CA_18
REMARK   12  A    between atoms: CA_18  and  C_19
REMARK   13  A    between atoms: CA_18  and  CB_21
REMARK   14  A    between atoms: CB_21  and  OG1_22
REMARK   15  A    between atoms: CB_21  and  CG2_23
REMARK   16  A    between atoms: N_24  and  CA_25
REMARK   17  A    between atoms: CA_25  and  C_26
REMARK   18  A    between atoms: CA_25  and  CB_29
REMARK   19  A    between atoms: CB_29  and  OG1_30
REMARK   20  A    between atoms: CB_29  and  CG2_31
REMARK                            x       y       z     vdW  Elec       q    Type
REMARK                         _______ _______ _______ _____ _____    ______ ____
ROOT
ATOM      1  C   ASP A   2       6.289  -4.193 -13.069  0.00  0.00    +0.235 C 
ATOM      2  O   ASP A   2       5.848  -3.061 -13.222  0.00  0.00    -0.274 OA
ATOM      3  N   THR A   3       5.459  -5.280 -12.839  0.00  0.00    -0.300 N 
ATOM      4  H   THR A   3       5.736  -6.124 -13.322  0.00  0.00    +0.150 HD
ENDROOT
BRANCH   3   5
ATOM      5  CA  THR A   3       4.021  -5.097 -12.595  0.00  0.00    +0.187 C 
BRANCH   5   6
ATOM      6  C   THR A   3       3.598  -5.580 -11.190  0.00  0.00    +0.237 C 
ATOM      7  O   THR A   3       3.472  -6.780 -10.947  0.00  0.00    -0.274 OA
ATOM      8  N   THR A   4       3.681  -4.607 -10.209  0.00  0.00    -0.294 N 
ATOM      9  H   THR A   4       3.209  -3.742 -10.474  0.00  0.00    +0.150 HD
BRANCH   8  10
ATOM     10  CA  THR A   4       3.431  -4.960  -8.794  0.00  0.00    +0.241 C 
BRANCH  10  11
ATOM     11  C   THR A   4       2.604  -3.919  -7.994  0.00  0.00    +0.257 C 
ATOM     12  O   THR A   4       2.149  -4.310  -6.884  0.00  0.00    -0.203 OA
ATOM     13  OXT THR A   4       2.594  -2.763  -8.518  0.00  0.00    -0.203 OA
ENDBRANCH  10  11
BRANCH  10  14
ATOM     14  CB  THR A   4       4.749  -5.003  -7.990  0.00  0.00    +0.149 C 
ATOM     15  CG2 THR A   4       5.540  -6.277  -8.258  0.00  0.00    +0.041 C 
BRANCH  14  16
ATOM     16  OG1 THR A   4       5.630  -3.920  -8.341  0.00  0.00    -0.389 OA
ATOM     17  H   THR A   4       5.024  -3.133  -8.426  0.00  0.00    +0.210 HD
ENDBRANCH  14  16
ENDBRANCH  10  14
ENDBRANCH   8  10
ENDBRANCH   5   6
BRANCH   5  18
ATOM     18  CB  THR A   3       3.228  -5.935 -13.629  0.00  0.00    +0.141 C 
ATOM     19  CG2 THR A   3       1.735  -5.614 -13.701  0.00  0.00    +0.040 C 
BRANCH  18  20
ATOM     20  OG1 THR A   3       3.795  -5.743 -14.940  0.00  0.00    -0.390 OA
ATOM     21  H   THR A   3       3.653  -4.805 -15.171  0.00  0.00    +0.210 HD
ENDBRANCH  18  20
ENDBRANCH   5  18
ENDBRANCH   3   5
BRANCH   1  22
ATOM     22  CA  ASP A   2       7.780  -4.560 -13.277  0.00  0.00    +0.175 C 
BRANCH  22  25
ATOM     23  C   ILE A   1       8.952  -3.216 -14.965  0.00  0.00    +0.199 C 
ATOM     24  O   ILE A   1       8.494  -3.900 -15.858  0.00  0.00    -0.278 OA
ATOM     25  N   ASP A   2       8.587  -3.369 -13.641  0.00  0.00    -0.304 N 
ATOM     26  H   ASP A   2       9.411  -3.375 -13.014  0.00  0.00    +0.149 HD
BRANCH  23  27
ATOM     27  CA  ILE A   1       9.895  -2.024 -15.224  0.00  0.00    +0.016 C 
BRANCH  27  28
ATOM     28  N   ILE A   1      10.771  -2.384 -16.402  0.00  0.00    +0.386 N 
ATOM     29  H   ILE A   1      11.217  -3.285 -16.189  0.00  0.00    -0.089 HD
ATOM     30  H   ILE A   1      11.499  -1.700 -16.599  0.00  0.00    -0.089 HD
ATOM     31  H   ILE A   1      10.175  -2.538 -17.227  0.00  0.00    -0.089 HD
ENDBRANCH  27  28
BRANCH  27  32
ATOM     32  CB  ILE A   1       9.151  -0.697 -15.492  0.00  0.00    -0.020 C 
ATOM     33  CG2 ILE A   1       9.846   0.432 -14.712  0.00  0.00    +0.006 C 
BRANCH  32  34
ATOM     34  CG1 ILE A   1       9.104  -0.346 -16.999  0.00  0.00    -0.001 C 
ATOM     35  CD1 ILE A   1       7.814  -0.783 -17.686  0.00  0.00    +0.004 C 
ENDBRANCH  32  34
ENDBRANCH  27  32
ENDBRANCH  23  27
ENDBRANCH  22  25
BRANCH  22  36
ATOM     36  CB  ASP A   2       8.327  -5.185 -12.002  0.00  0.00    +0.189 C 
BRANCH  36  37
ATOM     37  CG  ASP A   2       8.631  -4.154 -10.918  0.00  0.00    +0.236 C 
ATOM     38  OD1 ASP A   2       9.680  -3.457 -11.111  0.00  0.00    -0.205 OA
ATOM     39  OD2 ASP A   2       7.749  -4.029 -10.030  0.00  0.00    -0.205 OA
ENDBRANCH  36  37
ENDBRANCH  22  36
ENDBRANCH   1  22
TORSDOF 16
ENDMDL
MODEL 13
REMARK minimizedAffinity -6.85659933
REMARK minimizedRMSD -1
REMARK  Name = IDTT_min.pdb
REMARK  20 active torsions:
REMARK  status: ('A' for Active; 'I' for Inactive)
REMARK    1  A    between atoms: N_1  and  CA_2
REMARK    2  A    between atoms: CA_2  and  C_3
REMARK    3  A    between atoms: CA_2  and  CB_5
REMARK    4  A    between atoms: CB_5  and  CG1_6
REMARK    5  A    between atoms: CB_5  and  CG2_7
REMARK    6  A    between atoms: CG1_6  and  CD1_8
REMARK    7  A    between atoms: N_9  and  CA_10
REMARK    8  A    between atoms: CA_10  and  C_11
REMARK    9  A    between atoms: CA_10  and  CB_13
REMARK   10  A    between atoms: CB_13  and  CG_14
REMARK   11  A    between atoms: N_17  and  CA_18
REMARK   12  A    between atoms: CA_18  and  C_19
REMARK   13  A    between atoms: CA_18  and  CB_21
REMARK   14  A    between atoms: CB_21  and  OG1_22
REMARK   15  A    between atoms: CB_21  and  CG2_23
REMARK   16  A    between atoms: N_24  and  CA_25
REMARK   17  A    between atoms: CA_25  and  C_26
REMARK   18  A    between atoms: CA_25  and  CB_29
REMARK   19  A    between atoms: CB_29  and  OG1_30
REMARK   20  A    between atoms: CB_29  and  CG2_31
REMARK                            x       y       z     vdW  Elec       q    Type
REMARK                         _______ _______ _______ _____ _____    ______ ____
ROOT
ATOM      1  C   ASP A   2       7.739  -4.216 -11.063  0.00  0.00    +0.235 C 
ATOM      2  O   ASP A   2       8.670  -4.182 -10.268  0.00  0.00    -0.274 OA
ATOM      3  N   THR A   3       7.942  -4.275 -12.433  0.00  0.00    -0.300 N 
ATOM      4  H   THR A   3       7.305  -4.888 -12.923  0.00  0.00    +0.150 HD
ENDROOT
BRANCH   3   5
ATOM      5  CA  THR A   3       9.288  -4.124 -13.006  0.00  0.00    +0.187 C 
BRANCH   5   6
ATOM      6  C   THR A   3       9.453  -2.796 -13.777  0.00  0.00    +0.237 C 
ATOM      7  O   THR A   3       9.834  -1.777 -13.203  0.00  0.00    -0.274 OA
ATOM      8  N   THR A   4       9.436  -2.936 -15.154  0.00  0.00    -0.294 N 
ATOM      9  H   THR A   4       8.633  -3.474 -15.484  0.00  0.00    +0.150 HD
BRANCH   8  10
ATOM     10  CA  THR A   4       9.712  -1.769 -16.019  0.00  0.00    +0.241 C 
BRANCH  10  11
ATOM     11  C   THR A   4       8.477  -0.887 -16.346  0.00  0.00    +0.257 C 
ATOM     12  O   THR A   4       8.725   0.277 -16.765  0.00  0.00    -0.203 OA
ATOM     13  OXT THR A   4       7.372  -1.503 -16.254  0.00  0.00    -0.203 OA
ENDBRANCH  10  11
BRANCH  10  14
ATOM     14  CB  THR A   4      10.164  -2.213 -17.428  0.00  0.00    +0.149 C 
ATOM     15  CG2 THR A   4      10.509  -3.696 -17.475  0.00  0.00    +0.041 C 
BRANCH  14  16
ATOM     16  OG1 THR A   4       9.127  -2.027 -18.410  0.00  0.00    -0.389 OA
ATOM     17  H   THR A   4       8.729  -1.142 -18.176  0.00  0.00    +0.210 HD
ENDBRANCH  14  16
ENDBRANCH  10  14
ENDBRANCH   8  10
ENDBRANCH   5   6
BRANCH   5  18
ATOM     18  CB  THR A   3       9.534  -5.276 -14.013  0.00  0.00    +0.141 C 
ATOM     19  CG2 THR A   3       9.977  -6.594 -13.380  0.00  0.00    +0.040 C 
BRANCH  18  20
ATOM     20  OG1 THR A   3       8.332  -5.519 -14.770  0.00  0.00    -0.390 OA
ATOM     21  H   THR A   3       7.663  -5.840 -14.136  0.00  0.00    +0.210 HD
ENDBRANCH  18  20
ENDBRANCH   5  18
ENDBRANCH   3   5
BRANCH   1  22
ATOM     22  CA  ASP A   2       6.258  -4.363 -10.630  0.00  0.00    +0.175 C 
BRANCH  22  25
ATOM     23  C   ILE A   1       4.118  -4.340 -11.834  0.00  0.00    +0.199 C 
ATOM     24  O   ILE A   1       3.719  -3.420 -11.149  0.00  0.00    -0.278 OA
ATOM     25  N   ASP A   2       5.407  -4.830 -11.752  0.00  0.00    -0.304 N 
ATOM     26  H   ASP A   2       5.423  -5.865 -11.716  0.00  0.00    +0.149 HD
BRANCH  23  27
ATOM     27  CA  ILE A   1       3.271  -4.979 -12.953  0.00  0.00    +0.016 C 
BRANCH  27  28
ATOM     28  N   ILE A   1       4.220  -5.697 -13.885  0.00  0.00    +0.386 N 
ATOM     29  H   ILE A   1       4.934  -5.020 -14.180  0.00  0.00    -0.089 HD
ATOM     30  H   ILE A   1       3.771  -6.078 -14.717  0.00  0.00    -0.089 HD
ATOM     31  H   ILE A   1       4.711  -6.434 -13.360  0.00  0.00    -0.089 HD
ENDBRANCH  27  28
BRANCH  27  32
ATOM     32  CB  ILE A   1       2.191  -5.952 -12.429  0.00  0.00    -0.020 C 
ATOM     33  CG2 ILE A   1       0.992  -5.930 -13.391  0.00  0.00    +0.006 C 
BRANCH  32  34
ATOM     34  CG1 ILE A   1       2.726  -7.397 -12.283  0.00  0.00    -0.001 C 
ATOM     35  CD1 ILE A   1       3.019  -7.795 -10.841  0.00  0.00    +0.004 C 
ENDBRANCH  32  34
ENDBRANCH  27  32
ENDBRANCH  23  27
ENDBRANCH  22  25
BRANCH  22  36
ATOM     36  CB  ASP A   2       6.168  -5.344  -9.470  0.00  0.00    +0.189 C 
BRANCH  36  37
ATOM     37  CG  ASP A   2       5.824  -4.666  -8.145  0.00  0.00    +0.236 C 
ATOM     38  OD1 ASP A   2       4.642  -4.196  -8.067  0.00  0.00    -0.205 OA
ATOM     39  OD2 ASP A   2       6.699  -4.762  -7.248  0.00  0.00    -0.205 OA
ENDBRANCH  36  37
ENDBRANCH  22  36
ENDBRANCH   1  22
TORSDOF 16
ENDMDL
MODEL 14
REMARK minimizedAffinity -6.80441523
REMARK minimizedRMSD -1
REMARK  Name = IDTT_min.pdb
REMARK  20 active torsions:
REMARK  status: ('A' for Active; 'I' for Inactive)
REMARK    1  A    between atoms: N_1  and  CA_2
REMARK    2  A    between atoms: CA_2  and  C_3
REMARK    3  A    between atoms: CA_2  and  CB_5
REMARK    4  A    between atoms: CB_5  and  CG1_6
REMARK    5  A    between atoms: CB_5  and  CG2_7
REMARK    6  A    between atoms: CG1_6  and  CD1_8
REMARK    7  A    between atoms: N_9  and  CA_10
REMARK    8  A    between atoms: CA_10  and  C_11
REMARK    9  A    between atoms: CA_10  and  CB_13
REMARK   10  A    between atoms: CB_13  and  CG_14
REMARK   11  A    between atoms: N_17  and  CA_18
REMARK   12  A    between atoms: CA_18  and  C_19
REMARK   13  A    between atoms: CA_18  and  CB_21
REMARK   14  A    between atoms: CB_21  and  OG1_22
REMARK   15  A    between atoms: CB_21  and  CG2_23
REMARK   16  A    between atoms: N_24  and  CA_25
REMARK   17  A    between atoms: CA_25  and  C_26
REMARK   18  A    between atoms: CA_25  and  CB_29
REMARK   19  A    between atoms: CB_29  and  OG1_30
REMARK   20  A    between atoms: CB_29  and  CG2_31
REMARK                            x       y       z     vdW  Elec       q    Type
REMARK                         _______ _______ _______ _____ _____    ______ ____
ROOT
ATOM      1  C   ASP A   2       5.967  -3.966 -11.960  0.00  0.00    +0.235 C 
ATOM      2  O   ASP A   2       6.223  -4.038 -10.765  0.00  0.00    -0.274 OA
ATOM      3  N   THR A   3       6.953  -3.754 -12.913  0.00  0.00    -0.300 N 
ATOM      4  H   THR A   3       6.836  -4.293 -13.759  0.00  0.00    +0.150 HD
ENDROOT
BRANCH   3   5
ATOM      5  CA  THR A   3       8.332  -3.432 -12.516  0.00  0.00    +0.187 C 
BRANCH   5   6
ATOM      6  C   THR A   3       8.946  -2.312 -13.385  0.00  0.00    +0.237 C 
ATOM      7  O   THR A   3       9.760  -1.521 -12.911  0.00  0.00    -0.274 OA
ATOM      8  N   THR A   4       8.743  -2.477 -14.745  0.00  0.00    -0.294 N 
ATOM      9  H   THR A   4       7.764  -2.649 -14.977  0.00  0.00    +0.150 HD
BRANCH   8  10
ATOM     10  CA  THR A   4       9.384  -1.553 -15.705  0.00  0.00    +0.241 C 
BRANCH  10  11
ATOM     11  C   THR A   4       8.403  -0.672 -16.525  0.00  0.00    +0.257 C 
ATOM     12  O   THR A   4       7.239  -1.135 -16.674  0.00  0.00    -0.203 OA
ATOM     13  OXT THR A   4       8.877   0.461 -16.841  0.00  0.00    -0.203 OA
ENDBRANCH  10  11
BRANCH  10  14
ATOM     14  CB  THR A   4      10.119  -2.329 -16.820  0.00  0.00    +0.149 C 
ATOM     15  CG2 THR A   4      10.086  -3.833 -16.585  0.00  0.00    +0.041 C 
BRANCH  14  16
ATOM     16  OG1 THR A   4       9.510  -2.125 -18.109  0.00  0.00    -0.389 OA
ATOM     17  H   THR A   4       9.291  -1.153 -18.122  0.00  0.00    +0.210 HD
ENDBRANCH  14  16
ENDBRANCH  10  14
ENDBRANCH   8  10
ENDBRANCH   5   6
BRANCH   5  18
ATOM     18  CB  THR A   3       9.212  -4.693 -12.700  0.00  0.00    +0.141 C 
ATOM     19  CG2 THR A   3       8.644  -5.733 -13.664  0.00  0.00    +0.040 C 
BRANCH  18  20
ATOM     20  OG1 THR A   3      10.518  -4.305 -13.171  0.00  0.00    -0.390 OA
ATOM     21  H   THR A   3      10.391  -3.921 -14.060  0.00  0.00    +0.210 HD
ENDBRANCH  18  20
ENDBRANCH   5  18
ENDBRANCH   3   5
BRANCH   1  22
ATOM     22  CA  ASP A   2       4.565  -4.265 -12.548  0.00  0.00    +0.175 C 
BRANCH  22  25
ATOM     23  C   ILE A   1       4.532  -6.209 -14.048  0.00  0.00    +0.199 C 
ATOM     24  O   ILE A   1       5.007  -5.547 -14.948  0.00  0.00    -0.278 OA
ATOM     25  N   ASP A   2       4.365  -5.718 -12.766  0.00  0.00    -0.304 N 
ATOM     26  H   ASP A   2       3.427  -5.942 -12.389  0.00  0.00    +0.149 HD
BRANCH  23  27
ATOM     27  CA  ILE A   1       4.178  -7.701 -14.201  0.00  0.00    +0.016 C 
BRANCH  27  28
ATOM     28  N   ILE A   1       3.888  -8.243 -12.820  0.00  0.00    +0.386 N 
ATOM     29  H   ILE A   1       4.698  -8.022 -12.227  0.00  0.00    -0.089 HD
ATOM     30  H   ILE A   1       3.734  -9.250 -12.796  0.00  0.00    -0.089 HD
ATOM     31  H   ILE A   1       3.085  -7.737 -12.424  0.00  0.00    -0.089 HD
ENDBRANCH  27  28
BRANCH  27  32
ATOM     32  CB  ILE A   1       2.979  -7.956 -15.142  0.00  0.00    -0.020 C 
ATOM     33  CG2 ILE A   1       2.792  -9.474 -15.311  0.00  0.00    +0.006 C 
BRANCH  32  34
ATOM     34  CG1 ILE A   1       1.672  -7.318 -14.612  0.00  0.00    -0.001 C 
ATOM     35  CD1 ILE A   1       0.596  -8.339 -14.259  0.00  0.00    +0.004 C 
ENDBRANCH  32  34
ENDBRANCH  27  32
ENDBRANCH  23  27
ENDBRANCH  22  25
BRANCH  22  36
ATOM     36  CB  ASP A   2       3.498  -3.732 -11.601  0.00  0.00    +0.189 C 
BRANCH  36  37
ATOM     37  CG  ASP A   2       2.669  -4.842 -10.958  0.00  0.00    +0.236 C 
ATOM     38  OD1 ASP A   2       1.707  -5.281 -11.668  0.00  0.00    -0.205 OA
ATOM     39  OD2 ASP A   2       3.106  -5.274  -9.861  0.00  0.00    -0.205 OA
ENDBRANCH  36  37
ENDBRANCH  22  36
ENDBRANCH   1  22
TORSDOF 16
ENDMDL
MODEL 15
REMARK minimizedAffinity -6.79681921
REMARK minimizedRMSD -1
REMARK  Name = IDTT_min.pdb
REMARK  20 active torsions:
REMARK  status: ('A' for Active; 'I' for Inactive)
REMARK    1  A    between atoms: N_1  and  CA_2
REMARK    2  A    between atoms: CA_2  and  C_3
REMARK    3  A    between atoms: CA_2  and  CB_5
REMARK    4  A    between atoms: CB_5  and  CG1_6
REMARK    5  A    between atoms: CB_5  and  CG2_7
REMARK    6  A    between atoms: CG1_6  and  CD1_8
REMARK    7  A    between atoms: N_9  and  CA_10
REMARK    8  A    between atoms: CA_10  and  C_11
REMARK    9  A    between atoms: CA_10  and  CB_13
REMARK   10  A    between atoms: CB_13  and  CG_14
REMARK   11  A    between atoms: N_17  and  CA_18
REMARK   12  A    between atoms: CA_18  and  C_19
REMARK   13  A    between atoms: CA_18  and  CB_21
REMARK   14  A    between atoms: CB_21  and  OG1_22
REMARK   15  A    between atoms: CB_21  and  CG2_23
REMARK   16  A    between atoms: N_24  and  CA_25
REMARK   17  A    between atoms: CA_25  and  C_26
REMARK   18  A    between atoms: CA_25  and  CB_29
REMARK   19  A    between atoms: CB_29  and  OG1_30
REMARK   20  A    between atoms: CB_29  and  CG2_31
REMARK                            x       y       z     vdW  Elec       q    Type
REMARK                         _______ _______ _______ _____ _____    ______ ____
ROOT
ATOM      1  C   ASP A   2       5.696  -4.063 -12.198  0.00  0.00    +0.235 C 
ATOM      2  O   ASP A   2       5.543  -3.125 -12.969  0.00  0.00    -0.274 OA
ATOM      3  N   THR A   3       6.903  -4.297 -11.554  0.00  0.00    -0.300 N 
ATOM      4  H   THR A   3       6.811  -4.588 -10.591  0.00  0.00    +0.150 HD
ENDROOT
BRANCH   3   5
ATOM      5  CA  THR A   3       8.108  -3.530 -11.903  0.00  0.00    +0.187 C 
BRANCH   5   6
ATOM      6  C   THR A   3       8.561  -3.778 -13.359  0.00  0.00    +0.237 C 
ATOM      7  O   THR A   3       8.909  -4.899 -13.728  0.00  0.00    -0.274 OA
ATOM      8  N   THR A   4       8.250  -2.750 -14.231  0.00  0.00    -0.294 N 
ATOM      9  H   THR A   4       8.554  -1.838 -13.886  0.00  0.00    +0.150 HD
BRANCH   8  10
ATOM     10  CA  THR A   4       8.507  -2.905 -15.679  0.00  0.00    +0.241 C 
BRANCH  10  11
ATOM     11  C   THR A   4       8.891  -1.597 -16.422  0.00  0.00    +0.257 C 
ATOM     12  O   THR A   4       8.023  -0.682 -16.415  0.00  0.00    -0.203 OA
ATOM     13  OXT THR A   4      10.088  -1.583 -16.844  0.00  0.00    -0.203 OA
ENDBRANCH  10  11
BRANCH  10  14
ATOM     14  CB  THR A   4       7.226  -3.330 -16.431  0.00  0.00    +0.149 C 
ATOM     15  CG2 THR A   4       7.543  -4.069 -17.725  0.00  0.00    +0.041 C 
BRANCH  14  16
ATOM     16  OG1 THR A   4       6.423  -4.239 -15.653  0.00  0.00    -0.389 OA
ATOM     17  H   THR A   4       6.461  -3.865 -14.730  0.00  0.00    +0.210 HD
ENDBRANCH  14  16
ENDBRANCH  10  14
ENDBRANCH   8  10
ENDBRANCH   5   6
BRANCH   5  18
ATOM     18  CB  THR A   3       9.268  -3.973 -10.977  0.00  0.00    +0.141 C 
ATOM     19  CG2 THR A   3      10.645  -3.449 -11.383  0.00  0.00    +0.040 C 
BRANCH  18  20
ATOM     20  OG1 THR A   3       8.999  -3.540  -9.629  0.00  0.00    -0.390 OA
ATOM     21  H   THR A   3       9.009  -2.563  -9.641  0.00  0.00    +0.210 HD
ENDBRANCH  18  20
ENDBRANCH   5  18
ENDBRANCH   3   5
BRANCH   1  22
ATOM     22  CA  ASP A   2       4.536  -4.978 -11.731  0.00  0.00    +0.175 C 
BRANCH  22  25
ATOM     23  C   ILE A   1       3.995  -4.692  -9.353  0.00  0.00    +0.199 C 
ATOM     24  O   ILE A   1       4.960  -5.356  -9.033  0.00  0.00    -0.278 OA
ATOM     25  N   ASP A   2       3.733  -4.336 -10.662  0.00  0.00    -0.304 N 
ATOM     26  H   ASP A   2       2.740  -4.494 -10.911  0.00  0.00    +0.149 HD
BRANCH  23  27
ATOM     27  CA  ILE A   1       3.026  -4.073  -8.326  0.00  0.00    +0.016 C 
BRANCH  27  28
ATOM     28  N   ILE A   1       2.042  -3.216  -9.090  0.00  0.00    +0.386 N 
ATOM     29  H   ILE A   1       2.587  -2.558  -9.662  0.00  0.00    -0.089 HD
ATOM     30  H   ILE A   1       1.411  -2.682  -8.494  0.00  0.00    -0.089 HD
ATOM     31  H   ILE A   1       1.517  -3.812  -9.744  0.00  0.00    -0.089 HD
ENDBRANCH  27  28
BRANCH  27  32
ATOM     32  CB  ILE A   1       2.278  -5.122  -7.474  0.00  0.00    -0.020 C 
ATOM     33  CG2 ILE A   1       1.207  -4.409  -6.632  0.00  0.00    +0.006 C 
BRANCH  32  34
ATOM     34  CG1 ILE A   1       1.622  -6.223  -8.343  0.00  0.00    -0.001 C 
ATOM     35  CD1 ILE A   1       2.156  -7.622  -8.059  0.00  0.00    +0.004 C 
ENDBRANCH  32  34
ENDBRANCH  27  32
ENDBRANCH  23  27
ENDBRANCH  22  25
BRANCH  22  36
ATOM     36  CB  ASP A   2       3.645  -5.307 -12.921  0.00  0.00    +0.189 C 
BRANCH  36  37
ATOM     37  CG  ASP A   2       4.229  -6.400 -13.815  0.00  0.00    +0.236 C 
ATOM     38  OD1 ASP A   2       4.172  -6.164 -15.066  0.00  0.00    -0.205 OA
ATOM     39  OD2 ASP A   2       4.805  -7.340 -13.211  0.00  0.00    -0.205 OA
ENDBRANCH  36  37
ENDBRANCH  22  36
ENDBRANCH   1  22
TORSDOF 16
ENDMDL
MODEL 16
REMARK minimizedAffinity -6.78999233
REMARK minimizedRMSD -1
REMARK  Name = IDTT_min.pdb
REMARK  20 active torsions:
REMARK  status: ('A' for Active; 'I' for Inactive)
REMARK    1  A    between atoms: N_1  and  CA_2
REMARK    2  A    between atoms: CA_2  and  C_3
REMARK    3  A    between atoms: CA_2  and  CB_5
REMARK    4  A    between atoms: CB_5  and  CG1_6
REMARK    5  A    between atoms: CB_5  and  CG2_7
REMARK    6  A    between atoms: CG1_6  and  CD1_8
REMARK    7  A    between atoms: N_9  and  CA_10
REMARK    8  A    between atoms: CA_10  and  C_11
REMARK    9  A    between atoms: CA_10  and  CB_13
REMARK   10  A    between atoms: CB_13  and  CG_14
REMARK   11  A    between atoms: N_17  and  CA_18
REMARK   12  A    between atoms: CA_18  and  C_19
REMARK   13  A    between atoms: CA_18  and  CB_21
REMARK   14  A    between atoms: CB_21  and  OG1_22
REMARK   15  A    between atoms: CB_21  and  CG2_23
REMARK   16  A    between atoms: N_24  and  CA_25
REMARK   17  A    between atoms: CA_25  and  C_26
REMARK   18  A    between atoms: CA_25  and  CB_29
REMARK   19  A    between atoms: CB_29  and  OG1_30
REMARK   20  A    between atoms: CB_29  and  CG2_31
REMARK                            x       y       z     vdW  Elec       q    Type
REMARK                         _______ _______ _______ _____ _____    ______ ____
ROOT
ATOM      1  C   ASP A   2       8.029  -4.572 -10.950  0.00  0.00    +0.235 C 
ATOM      2  O   ASP A   2       8.893  -4.072 -10.241  0.00  0.00    -0.274 OA
ATOM      3  N   THR A   3       8.341  -5.318 -12.077  0.00  0.00    -0.300 N 
ATOM      4  H   THR A   3       7.762  -6.136 -12.209  0.00  0.00    +0.150 HD
ENDROOT
BRANCH   3   5
ATOM      5  CA  THR A   3       9.724  -5.397 -12.573  0.00  0.00    +0.187 C 
BRANCH   5   6
ATOM      6  C   THR A   3       9.893  -4.716 -13.949  0.00  0.00    +0.237 C 
ATOM      7  O   THR A   3      10.393  -5.322 -14.895  0.00  0.00    -0.274 OA
ATOM      8  N   THR A   4       9.179  -3.538 -14.088  0.00  0.00    -0.294 N 
ATOM      9  H   THR A   4       9.339  -2.889 -13.317  0.00  0.00    +0.150 HD
BRANCH   8  10
ATOM     10  CA  THR A   4       9.143  -2.845 -15.394  0.00  0.00    +0.241 C 
BRANCH  10  11
ATOM     11  C   THR A   4       9.457  -1.326 -15.341  0.00  0.00    +0.257 C 
ATOM     12  O   THR A   4       9.161  -0.738 -14.265  0.00  0.00    -0.203 OA
ATOM     13  OXT THR A   4      10.083  -0.899 -16.359  0.00  0.00    -0.203 OA
ENDBRANCH  10  11
BRANCH  10  14
ATOM     14  CB  THR A   4       7.718  -2.852 -15.990  0.00  0.00    +0.149 C 
ATOM     15  CG2 THR A   4       6.706  -3.482 -15.042  0.00  0.00    +0.041 C 
BRANCH  14  16
ATOM     16  OG1 THR A   4       7.233  -1.519 -16.242  0.00  0.00    -0.389 OA
ATOM     17  H   THR A   4       8.023  -1.043 -16.623  0.00  0.00    +0.210 HD
ENDBRANCH  14  16
ENDBRANCH  10  14
ENDBRANCH   8  10
ENDBRANCH   5   6
BRANCH   5  18
ATOM     18  CB  THR A   3      10.108  -6.888 -12.746  0.00  0.00    +0.141 C 
ATOM     19  CG2 THR A   3      10.332  -7.645 -11.438  0.00  0.00    +0.040 C 
BRANCH  18  20
ATOM     20  OG1 THR A   3       9.077  -7.567 -13.491  0.00  0.00    -0.390 OA
ATOM     21  H   THR A   3       8.273  -7.548 -12.937  0.00  0.00    +0.210 HD
ENDBRANCH  18  20
ENDBRANCH   5  18
ENDBRANCH   3   5
BRANCH   1  22
ATOM     22  CA  ASP A   2       6.523  -4.571 -10.582  0.00  0.00    +0.175 C 
BRANCH  22  25
ATOM     23  C   ILE A   1       4.411  -4.519 -11.834  0.00  0.00    +0.199 C 
ATOM     24  O   ILE A   1       4.020  -3.578 -11.174  0.00  0.00    -0.278 OA
ATOM     25  N   ASP A   2       5.687  -5.038 -11.714  0.00  0.00    -0.304 N 
ATOM     26  H   ASP A   2       5.677  -6.073 -11.660  0.00  0.00    +0.149 HD
BRANCH  23  27
ATOM     27  CA  ILE A   1       3.575  -5.159 -12.960  0.00  0.00    +0.016 C 
BRANCH  27  28
ATOM     28  N   ILE A   1       4.234  -6.468 -13.327  0.00  0.00    +0.386 N 
ATOM     29  H   ILE A   1       5.218  -6.267 -13.545  0.00  0.00    -0.089 HD
ATOM     30  H   ILE A   1       3.813  -6.931 -14.132  0.00  0.00    -0.089 HD
ATOM     31  H   ILE A   1       4.234  -7.086 -12.504  0.00  0.00    -0.089 HD
ENDBRANCH  27  28
BRANCH  27  32
ATOM     32  CB  ILE A   1       2.097  -5.390 -12.574  0.00  0.00    -0.020 C 
ATOM     33  CG2 ILE A   1       1.343  -5.944 -13.795  0.00  0.00    +0.006 C 
BRANCH  32  34
ATOM     34  CG1 ILE A   1       1.949  -6.361 -11.377  0.00  0.00    -0.001 C 
ATOM     35  CD1 ILE A   1       1.176  -7.631 -11.716  0.00  0.00    +0.004 C 
ENDBRANCH  32  34
ENDBRANCH  27  32
ENDBRANCH  23  27
ENDBRANCH  22  25
BRANCH  22  36
ATOM     36  CB  ASP A   2       6.301  -5.465  -9.371  0.00  0.00    +0.189 C 
BRANCH  36  37
ATOM     37  CG  ASP A   2       5.999  -4.677  -8.098  0.00  0.00    +0.236 C 
ATOM     38  OD1 ASP A   2       6.971  -4.576  -7.280  0.00  0.00    -0.205 OA
ATOM     39  OD2 ASP A   2       4.873  -4.119  -8.064  0.00  0.00    -0.205 OA
ENDBRANCH  36  37
ENDBRANCH  22  36
ENDBRANCH   1  22
TORSDOF 16
ENDMDL
MODEL 17
REMARK minimizedAffinity -6.71026087
REMARK minimizedRMSD -1
REMARK  Name = IDTT_min.pdb
REMARK  20 active torsions:
REMARK  status: ('A' for Active; 'I' for Inactive)
REMARK    1  A    between atoms: N_1  and  CA_2
REMARK    2  A    between atoms: CA_2  and  C_3
REMARK    3  A    between atoms: CA_2  and  CB_5
REMARK    4  A    between atoms: CB_5  and  CG1_6
REMARK    5  A    between atoms: CB_5  and  CG2_7
REMARK    6  A    between atoms: CG1_6  and  CD1_8
REMARK    7  A    between atoms: N_9  and  CA_10
REMARK    8  A    between atoms: CA_10  and  C_11
REMARK    9  A    between atoms: CA_10  and  CB_13
REMARK   10  A    between atoms: CB_13  and  CG_14
REMARK   11  A    between atoms: N_17  and  CA_18
REMARK   12  A    between atoms: CA_18  and  C_19
REMARK   13  A    between atoms: CA_18  and  CB_21
REMARK   14  A    between atoms: CB_21  and  OG1_22
REMARK   15  A    between atoms: CB_21  and  CG2_23
REMARK   16  A    between atoms: N_24  and  CA_25
REMARK   17  A    between atoms: CA_25  and  C_26
REMARK   18  A    between atoms: CA_25  and  CB_29
REMARK   19  A    between atoms: CB_29  and  OG1_30
REMARK   20  A    between atoms: CB_29  and  CG2_31
REMARK                            x       y       z     vdW  Elec       q    Type
REMARK                         _______ _______ _______ _____ _____    ______ ____
ROOT
ATOM      1  C   ASP A   2       3.431  -4.577 -10.090  0.00  0.00    +0.235 C 
ATOM      2  O   ASP A   2       3.335  -3.357 -10.133  0.00  0.00    -0.274 OA
ATOM      3  N   THR A   3       4.621  -5.232 -10.371  0.00  0.00    -0.300 N 
ATOM      4  H   THR A   3       4.817  -6.017  -9.765  0.00  0.00    +0.150 HD
ENDROOT
BRANCH   3   5
ATOM      5  CA  THR A   3       5.780  -4.500 -10.904  0.00  0.00    +0.187 C 
BRANCH   5   6
ATOM      6  C   THR A   3       5.935  -4.678 -12.431  0.00  0.00    +0.237 C 
ATOM      7  O   THR A   3       5.007  -5.113 -13.112  0.00  0.00    -0.274 OA
ATOM      8  N   THR A   4       7.040  -4.038 -12.965  0.00  0.00    -0.294 N 
ATOM      9  H   THR A   4       7.901  -4.260 -12.465  0.00  0.00    +0.150 HD
BRANCH   8  10
ATOM     10  CA  THR A   4       7.244  -4.014 -14.430  0.00  0.00    +0.241 C 
BRANCH  10  11
ATOM     11  C   THR A   4       7.938  -5.271 -15.018  0.00  0.00    +0.257 C 
ATOM     12  O   THR A   4       8.723  -5.882 -14.242  0.00  0.00    -0.203 OA
ATOM     13  OXT THR A   4       7.528  -5.585 -16.177  0.00  0.00    -0.203 OA
ENDBRANCH  10  11
BRANCH  10  14
ATOM     14  CB  THR A   4       8.224  -2.892 -14.838  0.00  0.00    +0.149 C 
ATOM     15  CG2 THR A   4       9.020  -2.369 -13.649  0.00  0.00    +0.041 C 
BRANCH  14  16
ATOM     16  OG1 THR A   4       9.204  -3.352 -15.788  0.00  0.00    -0.389 OA
ATOM     17  H   THR A   4       8.682  -3.928 -16.413  0.00  0.00    +0.210 HD
ENDBRANCH  14  16
ENDBRANCH  10  14
ENDBRANCH   8  10
ENDBRANCH   5   6
BRANCH   5  18
ATOM     18  CB  THR A   3       7.068  -5.053 -10.243  0.00  0.00    +0.141 C 
ATOM     19  CG2 THR A   3       7.549  -6.390 -10.802  0.00  0.00    +0.040 C 
BRANCH  18  20
ATOM     20  OG1 THR A   3       8.133  -4.092 -10.387  0.00  0.00    -0.390 OA
ATOM     21  H   THR A   3       8.318  -4.022 -11.343  0.00  0.00    +0.210 HD
ENDBRANCH  18  20
ENDBRANCH   5  18
ENDBRANCH   3   5
BRANCH   1  22
ATOM     22  CA  ASP A   2       2.303  -5.501  -9.564  0.00  0.00    +0.175 C 
BRANCH  22  25
ATOM     23  C   ILE A   1       1.677  -4.768  -7.305  0.00  0.00    +0.199 C 
ATOM     24  O   ILE A   1       2.733  -5.169  -6.860  0.00  0.00    -0.278 OA
ATOM     25  N   ASP A   2       1.384  -4.772  -8.656  0.00  0.00    -0.304 N 
ATOM     26  H   ASP A   2       0.436  -5.147  -8.842  0.00  0.00    +0.149 HD
BRANCH  23  27
ATOM     27  CA  ILE A   1       0.599  -4.099  -6.429  0.00  0.00    +0.016 C 
BRANCH  27  28
ATOM     28  N   ILE A   1       0.809  -2.605  -6.512  0.00  0.00    +0.386 N 
ATOM     29  H   ILE A   1       1.787  -2.417  -6.258  0.00  0.00    -0.089 HD
ATOM     30  H   ILE A   1       0.205  -2.068  -5.891  0.00  0.00    -0.089 HD
ATOM     31  H   ILE A   1       0.695  -2.304  -7.490  0.00  0.00    -0.089 HD
ENDBRANCH  27  28
BRANCH  27  32
ATOM     32  CB  ILE A   1      -0.845  -4.463  -6.844  0.00  0.00    -0.020 C 
ATOM     33  CG2 ILE A   1      -1.509  -5.250  -5.701  0.00  0.00    +0.006 C 
BRANCH  32  34
ATOM     34  CG1 ILE A   1      -1.690  -3.211  -7.185  0.00  0.00    -0.001 C 
ATOM     35  CD1 ILE A   1      -3.183  -3.403  -6.949  0.00  0.00    +0.004 C 
ENDBRANCH  32  34
ENDBRANCH  27  32
ENDBRANCH  23  27
ENDBRANCH  22  25
BRANCH  22  36
ATOM     36  CB  ASP A   2       1.525  -6.067 -10.743  0.00  0.00    +0.189 C 
BRANCH  36  37
ATOM     37  CG  ASP A   2       1.789  -7.555 -10.968  0.00  0.00    +0.236 C 
ATOM     38  OD1 ASP A   2       0.851  -8.188 -11.553  0.00  0.00    -0.205 OA
ATOM     39  OD2 ASP A   2       2.943  -7.950 -10.664  0.00  0.00    -0.205 OA
ENDBRANCH  36  37
ENDBRANCH  22  36
ENDBRANCH   1  22
TORSDOF 16
ENDMDL
MODEL 18
REMARK minimizedAffinity -6.62743807
REMARK minimizedRMSD -1
REMARK  Name = IDTT_min.pdb
REMARK  20 active torsions:
REMARK  status: ('A' for Active; 'I' for Inactive)
REMARK    1  A    between atoms: N_1  and  CA_2
REMARK    2  A    between atoms: CA_2  and  C_3
REMARK    3  A    between atoms: CA_2  and  CB_5
REMARK    4  A    between atoms: CB_5  and  CG1_6
REMARK    5  A    between atoms: CB_5  and  CG2_7
REMARK    6  A    between atoms: CG1_6  and  CD1_8
REMARK    7  A    between atoms: N_9  and  CA_10
REMARK    8  A    between atoms: CA_10  and  C_11
REMARK    9  A    between atoms: CA_10  and  CB_13
REMARK   10  A    between atoms: CB_13  and  CG_14
REMARK   11  A    between atoms: N_17  and  CA_18
REMARK   12  A    between atoms: CA_18  and  C_19
REMARK   13  A    between atoms: CA_18  and  CB_21
REMARK   14  A    between atoms: CB_21  and  OG1_22
REMARK   15  A    between atoms: CB_21  and  CG2_23
REMARK   16  A    between atoms: N_24  and  CA_25
REMARK   17  A    between atoms: CA_25  and  C_26
REMARK   18  A    between atoms: CA_25  and  CB_29
REMARK   19  A    between atoms: CB_29  and  OG1_30
REMARK   20  A    between atoms: CB_29  and  CG2_31
REMARK                            x       y       z     vdW  Elec       q    Type
REMARK                         _______ _______ _______ _____ _____    ______ ____
ROOT
ATOM      1  C   ASP A   2       6.038  -3.936 -12.394  0.00  0.00    +0.235 C 
ATOM      2  O   ASP A   2       5.844  -3.034 -13.199  0.00  0.00    -0.274 OA
ATOM      3  N   THR A   3       7.273  -4.133 -11.793  0.00  0.00    -0.300 N 
ATOM      4  H   THR A   3       7.224  -4.382 -10.814  0.00  0.00    +0.150 HD
ENDROOT
BRANCH   3   5
ATOM      5  CA  THR A   3       8.455  -3.373 -12.225  0.00  0.00    +0.187 C 
BRANCH   5   6
ATOM      6  C   THR A   3       8.901  -3.746 -13.656  0.00  0.00    +0.237 C 
ATOM      7  O   THR A   3       9.087  -4.920 -13.972  0.00  0.00    -0.274 OA
ATOM      8  N   THR A   4       8.768  -2.719 -14.575  0.00  0.00    -0.294 N 
ATOM      9  H   THR A   4       9.196  -1.849 -14.255  0.00  0.00    +0.150 HD
BRANCH   8  10
ATOM     10  CA  THR A   4       9.034  -2.970 -16.008  0.00  0.00    +0.241 C 
BRANCH  10  11
ATOM     11  C   THR A   4      10.077  -2.022 -16.659  0.00  0.00    +0.257 C 
ATOM     12  O   THR A   4      10.754  -2.511 -17.604  0.00  0.00    -0.203 OA
ATOM     13  OXT THR A   4      10.025  -0.831 -16.223  0.00  0.00    -0.203 OA
ENDBRANCH  10  11
BRANCH  10  14
ATOM     14  CB  THR A   4       7.779  -2.696 -16.865  0.00  0.00    +0.149 C 
ATOM     15  CG2 THR A   4       6.725  -3.783 -16.697  0.00  0.00    +0.041 C 
BRANCH  14  16
ATOM     16  OG1 THR A   4       7.129  -1.466 -16.489  0.00  0.00    -0.389 OA
ATOM     17  H   THR A   4       7.883  -0.831 -16.338  0.00  0.00    +0.210 HD
ENDBRANCH  14  16
ENDBRANCH  10  14
ENDBRANCH   8  10
ENDBRANCH   5   6
BRANCH   5  18
ATOM     18  CB  THR A   3       9.634  -3.699 -11.274  0.00  0.00    +0.141 C 
ATOM     19  CG2 THR A   3      10.901  -2.882 -11.524  0.00  0.00    +0.040 C 
BRANCH  18  20
ATOM     20  OG1 THR A   3       9.223  -3.490  -9.909  0.00  0.00    -0.390 OA
ATOM     21  H   THR A   3       9.044  -2.535  -9.814  0.00  0.00    +0.210 HD
ENDBRANCH  18  20
ENDBRANCH   5  18
ENDBRANCH   3   5
BRANCH   1  22
ATOM     22  CA  ASP A   2       4.907  -4.838 -11.840  0.00  0.00    +0.175 C 
BRANCH  22  25
ATOM     23  C   ILE A   1       3.225  -5.971 -13.225  0.00  0.00    +0.199 C 
ATOM     24  O   ILE A   1       2.413  -5.099 -12.988  0.00  0.00    -0.278 OA
ATOM     25  N   ASP A   2       4.540  -5.904 -12.804  0.00  0.00    -0.304 N 
ATOM     26  H   ASP A   2       4.853  -6.797 -12.383  0.00  0.00    +0.149 HD
BRANCH  23  27
ATOM     27  CA  ILE A   1       2.912  -7.185 -14.121  0.00  0.00    +0.016 C 
BRANCH  27  28
ATOM     28  N   ILE A   1       3.505  -8.406 -13.455  0.00  0.00    +0.386 N 
ATOM     29  H   ILE A   1       4.498  -8.209 -13.280  0.00  0.00    -0.089 HD
ATOM     30  H   ILE A   1       3.437  -9.255 -14.015  0.00  0.00    -0.089 HD
ATOM     31  H   ILE A   1       3.062  -8.533 -12.535  0.00  0.00    -0.089 HD
ENDBRANCH  27  28
BRANCH  27  32
ATOM     32  CB  ILE A   1       1.402  -7.391 -14.375  0.00  0.00    -0.020 C 
ATOM     33  CG2 ILE A   1       1.215  -8.084 -15.736  0.00  0.00    +0.006 C 
BRANCH  32  34
ATOM     34  CG1 ILE A   1       0.728  -8.226 -13.260  0.00  0.00    -0.001 C 
ATOM     35  CD1 ILE A   1      -0.079  -9.407 -13.787  0.00  0.00    +0.004 C 
ENDBRANCH  32  34
ENDBRANCH  27  32
ENDBRANCH  23  27
ENDBRANCH  22  25
BRANCH  22  36
ATOM     36  CB  ASP A   2       5.358  -5.462 -10.527  0.00  0.00    +0.189 C 
BRANCH  36  37
ATOM     37  CG  ASP A   2       5.286  -4.488  -9.352  0.00  0.00    +0.236 C 
ATOM     38  OD1 ASP A   2       4.111  -4.228  -8.934  0.00  0.00    -0.205 OA
ATOM     39  OD2 ASP A   2       6.394  -4.157  -8.858  0.00  0.00    -0.205 OA
ENDBRANCH  36  37
ENDBRANCH  22  36
ENDBRANCH   1  22
TORSDOF 16
ENDMDL
MODEL 19
REMARK minimizedAffinity -6.60854053
REMARK minimizedRMSD -1
REMARK  Name = IDTT_min.pdb
REMARK  20 active torsions:
REMARK  status: ('A' for Active; 'I' for Inactive)
REMARK    1  A    between atoms: N_1  and  CA_2
REMARK    2  A    between atoms: CA_2  and  C_3
REMARK    3  A    between atoms: CA_2  and  CB_5
REMARK    4  A    between atoms: CB_5  and  CG1_6
REMARK    5  A    between atoms: CB_5  and  CG2_7
REMARK    6  A    between atoms: CG1_6  and  CD1_8
REMARK    7  A    between atoms: N_9  and  CA_10
REMARK    8  A    between atoms: CA_10  and  C_11
REMARK    9  A    between atoms: CA_10  and  CB_13
REMARK   10  A    between atoms: CB_13  and  CG_14
REMARK   11  A    between atoms: N_17  and  CA_18
REMARK   12  A    between atoms: CA_18  and  C_19
REMARK   13  A    between atoms: CA_18  and  CB_21
REMARK   14  A    between atoms: CB_21  and  OG1_22
REMARK   15  A    between atoms: CB_21  and  CG2_23
REMARK   16  A    between atoms: N_24  and  CA_25
REMARK   17  A    between atoms: CA_25  and  C_26
REMARK   18  A    between atoms: CA_25  and  CB_29
REMARK   19  A    between atoms: CB_29  and  OG1_30
REMARK   20  A    between atoms: CB_29  and  CG2_31
REMARK                            x       y       z     vdW  Elec       q    Type
REMARK                         _______ _______ _______ _____ _____    ______ ____
ROOT
ATOM      1  C   ASP A   2       6.878  -4.402 -12.802  0.00  0.00    +0.235 C 
ATOM      2  O   ASP A   2       6.781  -3.782 -11.750  0.00  0.00    -0.274 OA
ATOM      3  N   THR A   3       8.048  -4.412 -13.546  0.00  0.00    -0.300 N 
ATOM      4  H   THR A   3       8.278  -5.310 -13.949  0.00  0.00    +0.150 HD
ENDROOT
BRANCH   3   5
ATOM      5  CA  THR A   3       9.175  -3.534 -13.195  0.00  0.00    +0.187 C 
BRANCH   5   6
ATOM      6  C   THR A   3       9.734  -2.779 -14.422  0.00  0.00    +0.237 C 
ATOM      7  O   THR A   3      10.807  -3.106 -14.927  0.00  0.00    -0.274 OA
ATOM      8  N   THR A   4       8.812  -1.959 -15.049  0.00  0.00    -0.294 N 
ATOM      9  H   THR A   4       8.337  -1.333 -14.397  0.00  0.00    +0.150 HD
BRANCH   8  10
ATOM     10  CA  THR A   4       9.169  -1.275 -16.311  0.00  0.00    +0.241 C 
BRANCH  10  11
ATOM     11  C   THR A   4       9.065   0.273 -16.271  0.00  0.00    +0.257 C 
ATOM     12  O   THR A   4       8.851   0.841 -17.377  0.00  0.00    -0.203 OA
ATOM     13  OXT THR A   4       9.095   0.756 -15.098  0.00  0.00    -0.203 OA
ENDBRANCH  10  11
BRANCH  10  14
ATOM     14  CB  THR A   4       8.174  -1.630 -17.438  0.00  0.00    +0.149 C 
ATOM     15  CG2 THR A   4       7.899  -3.127 -17.507  0.00  0.00    +0.041 C 
BRANCH  14  16
ATOM     16  OG1 THR A   4       6.889  -1.010 -17.236  0.00  0.00    -0.389 OA
ATOM     17  H   THR A   4       7.111  -0.090 -16.922  0.00  0.00    +0.210 HD
ENDBRANCH  14  16
ENDBRANCH  10  14
ENDBRANCH   8  10
ENDBRANCH   5   6
BRANCH   5  18
ATOM     18  CB  THR A   3      10.325  -4.402 -12.624  0.00  0.00    +0.141 C 
ATOM     19  CG2 THR A   3      10.343  -4.514 -11.100  0.00  0.00    +0.040 C 
BRANCH  18  20
ATOM     20  OG1 THR A   3      10.244  -5.731 -13.175  0.00  0.00    -0.390 OA
ATOM     21  H   THR A   3       9.410  -6.120 -12.846  0.00  0.00    +0.210 HD
ENDBRANCH  18  20
ENDBRANCH   5  18
ENDBRANCH   3   5
BRANCH   1  22
ATOM     22  CA  ASP A   2       5.781  -5.364 -13.324  0.00  0.00    +0.175 C 
BRANCH  22  25
ATOM     23  C   ILE A   1       3.712  -6.250 -12.343  0.00  0.00    +0.199 C 
ATOM     24  O   ILE A   1       4.117  -7.388 -12.466  0.00  0.00    -0.278 OA
ATOM     25  N   ASP A   2       4.489  -5.144 -12.629  0.00  0.00    -0.304 N 
ATOM     26  H   ASP A   2       3.971  -4.447 -13.194  0.00  0.00    +0.149 HD
BRANCH  23  27
ATOM     27  CA  ILE A   1       2.334  -5.912 -11.739  0.00  0.00    +0.016 C 
BRANCH  27  28
ATOM     28  N   ILE A   1       2.343  -4.444 -11.381  0.00  0.00    +0.386 N 
ATOM     29  H   ILE A   1       3.160  -4.279 -10.780  0.00  0.00    -0.089 HD
ATOM     30  H   ILE A   1       1.508  -4.135 -10.885  0.00  0.00    -0.089 HD
ATOM     31  H   ILE A   1       2.490  -3.891 -12.237  0.00  0.00    -0.089 HD
ENDBRANCH  27  28
BRANCH  27  32
ATOM     32  CB  ILE A   1       1.153  -6.228 -12.685  0.00  0.00    -0.020 C 
ATOM     33  CG2 ILE A   1       1.522  -5.780 -14.109  0.00  0.00    +0.006 C 
BRANCH  32  34
ATOM     34  CG1 ILE A   1       0.786  -7.732 -12.681  0.00  0.00    -0.001 C 
ATOM     35  CD1 ILE A   1       0.758  -8.354 -14.073  0.00  0.00    +0.004 C 
ENDBRANCH  32  34
ENDBRANCH  27  32
ENDBRANCH  23  27
ENDBRANCH  22  25
BRANCH  22  36
ATOM     36  CB  ASP A   2       5.604  -5.159 -14.822  0.00  0.00    +0.189 C 
BRANCH  36  37
ATOM     37  CG  ASP A   2       6.074  -6.357 -15.645  0.00  0.00    +0.236 C 
ATOM     38  OD1 ASP A   2       5.161  -7.184 -15.968  0.00  0.00    -0.205 OA
ATOM     39  OD2 ASP A   2       7.277  -6.322 -16.008  0.00  0.00    -0.205 OA
ENDBRANCH  36  37
ENDBRANCH  22  36
ENDBRANCH   1  22
TORSDOF 16
ENDMDL
MODEL 20
REMARK minimizedAffinity -6.57863808
REMARK minimizedRMSD -1
REMARK  Name = IDTT_min.pdb
REMARK  20 active torsions:
REMARK  status: ('A' for Active; 'I' for Inactive)
REMARK    1  A    between atoms: N_1  and  CA_2
REMARK    2  A    between atoms: CA_2  and  C_3
REMARK    3  A    between atoms: CA_2  and  CB_5
REMARK    4  A    between atoms: CB_5  and  CG1_6
REMARK    5  A    between atoms: CB_5  and  CG2_7
REMARK    6  A    between atoms: CG1_6  and  CD1_8
REMARK    7  A    between atoms: N_9  and  CA_10
REMARK    8  A    between atoms: CA_10  and  C_11
REMARK    9  A    between atoms: CA_10  and  CB_13
REMARK   10  A    between atoms: CB_13  and  CG_14
REMARK   11  A    between atoms: N_17  and  CA_18
REMARK   12  A    between atoms: CA_18  and  C_19
REMARK   13  A    between atoms: CA_18  and  CB_21
REMARK   14  A    between atoms: CB_21  and  OG1_22
REMARK   15  A    between atoms: CB_21  and  CG2_23
REMARK   16  A    between atoms: N_24  and  CA_25
REMARK   17  A    between atoms: CA_25  and  C_26
REMARK   18  A    between atoms: CA_25  and  CB_29
REMARK   19  A    between atoms: CB_29  and  OG1_30
REMARK   20  A    between atoms: CB_29  and  CG2_31
REMARK                            x       y       z     vdW  Elec       q    Type
REMARK                         _______ _______ _______ _____ _____    ______ ____
ROOT
ATOM      1  C   ASP A   2       7.911  -5.109 -11.286  0.00  0.00    +0.235 C 
ATOM      2  O   ASP A   2       8.666  -5.824 -10.639  0.00  0.00    -0.274 OA
ATOM      3  N   THR A   3       7.973  -5.033 -12.669  0.00  0.00    -0.300 N 
ATOM      4  H   THR A   3       7.072  -4.995 -13.125  0.00  0.00    +0.150 HD
ENDROOT
BRANCH   3   5
ATOM      5  CA  THR A   3       9.066  -5.677 -13.414  0.00  0.00    +0.187 C 
BRANCH   5   6
ATOM      6  C   THR A   3       9.666  -4.749 -14.493  0.00  0.00    +0.237 C 
ATOM      7  O   THR A   3      10.829  -4.889 -14.868  0.00  0.00    -0.274 OA
ATOM      8  N   THR A   4       8.727  -4.001 -15.181  0.00  0.00    -0.294 N 
ATOM      9  H   THR A   4       8.091  -3.502 -14.558  0.00  0.00    +0.150 HD
BRANCH   8  10
ATOM     10  CA  THR A   4       9.143  -3.166 -16.328  0.00  0.00    +0.241 C 
BRANCH  10  11
ATOM     11  C   THR A   4       8.750  -1.667 -16.227  0.00  0.00    +0.257 C 
ATOM     12  O   THR A   4       9.605  -0.842 -16.651  0.00  0.00    -0.203 OA
ATOM     13  OXT THR A   4       7.559  -1.478 -15.832  0.00  0.00    -0.203 OA
ENDBRANCH  10  11
BRANCH  10  14
ATOM     14  CB  THR A   4       8.418  -3.595 -17.623  0.00  0.00    +0.149 C 
ATOM     15  CG2 THR A   4       7.236  -4.513 -17.337  0.00  0.00    +0.041 C 
BRANCH  14  16
ATOM     16  OG1 THR A   4       7.869  -2.468 -18.332  0.00  0.00    -0.389 OA
ATOM     17  H   THR A   4       8.579  -1.771 -18.265  0.00  0.00    +0.210 HD
ENDBRANCH  14  16
ENDBRANCH  10  14
ENDBRANCH   8  10
ENDBRANCH   5   6
BRANCH   5  18
ATOM     18  CB  THR A   3       8.508  -6.928 -14.139  0.00  0.00    +0.141 C 
ATOM     19  CG2 THR A   3       6.984  -6.977 -14.245  0.00  0.00    +0.040 C 
BRANCH  18  20
ATOM     20  OG1 THR A   3       9.056  -6.997 -15.470  0.00  0.00    -0.390 OA
ATOM     21  H   THR A   3       8.717  -6.219 -15.953  0.00  0.00    +0.210 HD
ENDBRANCH  18  20
ENDBRANCH   5  18
ENDBRANCH   3   5
BRANCH   1  22
ATOM     22  CA  ASP A   2       6.713  -4.351 -10.658  0.00  0.00    +0.175 C 
BRANCH  22  25
ATOM     23  C   ILE A   1       4.557  -4.614 -11.803  0.00  0.00    +0.199 C 
ATOM     24  O   ILE A   1       4.851  -3.746 -12.599  0.00  0.00    -0.278 OA
ATOM     25  N   ASP A   2       5.441  -5.089 -10.853  0.00  0.00    -0.304 N 
ATOM     26  H   ASP A   2       5.000  -5.157  -9.918  0.00  0.00    +0.149 HD
BRANCH  23  27
ATOM     27  CA  ILE A   1       3.212  -5.366 -11.842  0.00  0.00    +0.016 C 
BRANCH  27  28
ATOM     28  N   ILE A   1       2.243  -4.610 -10.962  0.00  0.00    +0.386 N 
ATOM     29  H   ILE A   1       2.683  -4.504 -10.040  0.00  0.00    -0.089 HD
ATOM     30  H   ILE A   1       1.345  -5.076 -10.841  0.00  0.00    -0.089 HD
ATOM     31  H   ILE A   1       2.119  -3.661 -11.340  0.00  0.00    -0.089 HD
ENDBRANCH  27  28
BRANCH  27  32
ATOM     32  CB  ILE A   1       2.635  -5.524 -13.266  0.00  0.00    -0.020 C 
ATOM     33  CG2 ILE A   1       3.333  -6.707 -13.959  0.00  0.00    +0.006 C 
BRANCH  32  34
ATOM     34  CG1 ILE A   1       1.103  -5.745 -13.257  0.00  0.00    -0.001 C 
ATOM     35  CD1 ILE A   1       0.699  -7.211 -13.377  0.00  0.00    +0.004 C 
ENDBRANCH  32  34
ENDBRANCH  27  32
ENDBRANCH  23  27
ENDBRANCH  22  25
BRANCH  22  36
ATOM     36  CB  ASP A   2       6.971  -4.146  -9.172  0.00  0.00    +0.189 C 
BRANCH  36  37
ATOM     37  CG  ASP A   2       5.954  -4.866  -8.289  0.00  0.00    +0.236 C 
ATOM     38  OD1 ASP A   2       6.351  -5.971  -7.794  0.00  0.00    -0.205 OA
ATOM     39  OD2 ASP A   2       4.896  -4.228  -8.055  0.00  0.00    -0.205 OA
ENDBRANCH  36  37
ENDBRANCH  22  36
ENDBRANCH   1  22
TORSDOF 16
ENDMDL
