REMARK  Name = IDTT_min.pdb
REMARK  20 active torsions:
REMARK  status: ('A' for Active; 'I' for Inactive)
REMARK    1  A    between atoms: N_1  and  CA_2
REMARK    2  A    between atoms: CA_2  and  C_3
REMARK    3  A    between atoms: CA_2  and  CB_5
REMARK    4  A    between atoms: CB_5  and  CG1_6
REMARK    5  A    between atoms: CB_5  and  CG2_7
REMARK    6  A    between atoms: CG1_6  and  CD1_8
REMARK    7  A    between atoms: N_9  and  CA_10
REMARK    8  A    between atoms: CA_10  and  C_11
REMARK    9  A    between atoms: CA_10  and  CB_13
REMARK   10  A    between atoms: CB_13  and  CG_14
REMARK   11  A    between atoms: N_17  and  CA_18
REMARK   12  A    between atoms: CA_18  and  C_19
REMARK   13  A    between atoms: CA_18  and  CB_21
REMARK   14  A    between atoms: CB_21  and  OG1_22
REMARK   15  A    between atoms: CB_21  and  CG2_23
REMARK   16  A    between atoms: N_24  and  CA_25
REMARK   17  A    between atoms: CA_25  and  C_26
REMARK   18  A    between atoms: CA_25  and  CB_29
REMARK   19  A    between atoms: CB_29  and  OG1_30
REMARK   20  A    between atoms: CB_29  and  CG2_31
REMARK                            x       y       z     vdW  Elec       q    Type
REMARK                         _______ _______ _______ _____ _____    ______ ____
ROOT
ATOM      1  C   ASP A   2      -0.576   0.775  -1.427  0.00  0.00    +0.235 C 
ATOM      2  O   ASP A   2       0.039   1.807  -1.190  0.00  0.00    -0.274 OA
ATOM      3  N   THR A   3      -1.584   0.311  -0.595  0.00  0.00    -0.300 N 
ATOM      4  H   THR A   3      -2.382  -0.073  -1.082  0.00  0.00    +0.150 HD
ENDROOT
BRANCH   3   5
ATOM      5  CA  THR A   3      -1.844   0.946   0.706  0.00  0.00    +0.187 C 
BRANCH   5   6
ATOM      6  C   THR A   3      -0.819   0.522   1.781  0.00  0.00    +0.237 C 
ATOM      7  O   THR A   3      -0.684   1.174   2.815  0.00  0.00    -0.274 OA
ATOM      8  N   THR A   4      -0.328  -0.762   1.618  0.00  0.00    -0.294 N 
ATOM      9  H   THR A   4       0.016  -0.933   0.672  0.00  0.00    +0.150 HD
BRANCH   8  10
ATOM     10  CA  THR A   4       0.562  -1.349   2.643  0.00  0.00    +0.241 C 
BRANCH  10  11
ATOM     11  C   THR A   4       2.054  -0.935   2.533  0.00  0.00    +0.257 C 
ATOM     12  O   THR A   4       2.628  -0.645   3.618  0.00  0.00    -0.203 OA
ATOM     13  OXT THR A   4       2.532  -1.057   1.364  0.00  0.00    -0.203 OA
ENDBRANCH  10  11
BRANCH  10  14
ATOM     14  CB  THR A   4       0.648  -2.884   2.494  0.00  0.00    +0.149 C 
ATOM     15  CG2 THR A   4      -0.647  -3.571   2.908  0.00  0.00    +0.041 C 
BRANCH  14  16
ATOM     16  OG1 THR A   4       0.876  -3.280   1.128  0.00  0.00    -0.389 OA
ATOM     17  H   THR A   4       1.548  -2.623   0.795  0.00  0.00    +0.210 HD
ENDBRANCH  14  16
ENDBRANCH  10  14
ENDBRANCH   8  10
ENDBRANCH   5   6
BRANCH   5  18
ATOM     18  CB  THR A   3      -3.244   0.508   1.205  0.00  0.00    +0.141 C 
ATOM     19  CG2 THR A   3      -3.682   1.149   2.521  0.00  0.00    +0.040 C 
BRANCH  18  20
ATOM     20  OG1 THR A   3      -4.231   0.817   0.201  0.00  0.00    -0.390 OA
ATOM     21  H   THR A   3      -4.254   1.790   0.122  0.00  0.00    +0.210 HD
ENDBRANCH  18  20
ENDBRANCH   5  18
ENDBRANCH   3   5
BRANCH   1  22
ATOM     22  CA  ASP A   2      -0.417  -0.025  -2.745  0.00  0.00    +0.175 C 
BRANCH  22  25
ATOM     23  C   ILE A   1      -0.083  -2.262  -1.789  0.00  0.00    +0.199 C 
ATOM     24  O   ILE A   1       0.815  -1.849  -1.084  0.00  0.00    -0.278 OA
ATOM     25  N   ASP A   2      -0.854  -1.433  -2.582  0.00  0.00    -0.304 N 
ATOM     26  H   ASP A   2      -0.967  -1.814  -3.539  0.00  0.00    +0.149 HD
BRANCH  23  27
ATOM     27  CA  ILE A   1      -0.542  -3.734  -1.785  0.00  0.00    +0.016 C 
BRANCH  27  28
ATOM     28  N   ILE A   1      -2.050  -3.739  -1.682  0.00  0.00    +0.386 N 
ATOM     29  H   ILE A   1      -2.304  -3.177  -0.860  0.00  0.00    -0.089 HD
ATOM     30  H   ILE A   1      -2.453  -4.669  -1.576  0.00  0.00    -0.089 HD
ATOM     31  H   ILE A   1      -2.443  -3.257  -2.502  0.00  0.00    -0.089 HD
ENDBRANCH  27  28
BRANCH  27  32
ATOM     32  CB  ILE A   1      -0.085  -4.525  -3.031  0.00  0.00    -0.020 C 
ATOM     33  CG2 ILE A   1       1.449  -4.463  -3.126  0.00  0.00    +0.006 C 
BRANCH  32  34
ATOM     34  CG1 ILE A   1      -0.553  -6.000  -2.993  0.00  0.00    -0.001 C 
ATOM     35  CD1 ILE A   1      -0.288  -6.756  -4.290  0.00  0.00    +0.004 C 
ENDBRANCH  32  34
ENDBRANCH  27  32
ENDBRANCH  23  27
ENDBRANCH  22  25
BRANCH  22  36
ATOM     36  CB  ASP A   2      -1.231   0.646  -3.842  0.00  0.00    +0.189 C 
BRANCH  36  37
ATOM     37  CG  ASP A   2      -1.192  -0.120  -5.163  0.00  0.00    +0.236 C 
ATOM     38  OD1 ASP A   2      -0.913  -1.359  -5.063  0.00  0.00    -0.205 OA
ATOM     39  OD2 ASP A   2      -1.559   0.531  -6.174  0.00  0.00    -0.205 OA
ENDBRANCH  36  37
ENDBRANCH  22  36
ENDBRANCH   1  22
TORSDOF 16
