MODEL 1
REMARK VINA RESULT:      -7.4      0.000      0.000
REMARK  Name = IDTT_min.pdb
REMARK  20 active torsions:
REMARK  status: ('A' for Active; 'I' for Inactive)
REMARK    1  A    between atoms: N_1  and  CA_2
REMARK    2  A    between atoms: CA_2  and  C_3
REMARK    3  A    between atoms: CA_2  and  CB_5
REMARK    4  A    between atoms: CB_5  and  CG1_6
REMARK    5  A    between atoms: CB_5  and  CG2_7
REMARK    6  A    between atoms: CG1_6  and  CD1_8
REMARK    7  A    between atoms: N_9  and  CA_10
REMARK    8  A    between atoms: CA_10  and  C_11
REMARK    9  A    between atoms: CA_10  and  CB_13
REMARK   10  A    between atoms: CB_13  and  CG_14
REMARK   11  A    between atoms: N_17  and  CA_18
REMARK   12  A    between atoms: CA_18  and  C_19
REMARK   13  A    between atoms: CA_18  and  CB_21
REMARK   14  A    between atoms: CB_21  and  OG1_22
REMARK   15  A    between atoms: CB_21  and  CG2_23
REMARK   16  A    between atoms: N_24  and  CA_25
REMARK   17  A    between atoms: CA_25  and  C_26
REMARK   18  A    between atoms: CA_25  and  CB_29
REMARK   19  A    between atoms: CB_29  and  OG1_30
REMARK   20  A    between atoms: CB_29  and  CG2_31
REMARK                            x       y       z     vdW  Elec       q    Type
REMARK                         _______ _______ _______ _____ _____    ______ ____
ROOT
ATOM      1  C   ASP A   2       3.023  -4.448 -10.089  0.00  0.00    +0.235 C 
ATOM      2  O   ASP A   2       2.897  -3.268 -10.393  0.00  0.00    -0.274 OA
ATOM      3  N   THR A   3       2.851  -5.468 -11.013  0.00  0.00    -0.300 N 
ATOM      4  H   THR A   3       3.516  -6.225 -10.926  0.00  0.00    +0.150 HD
ENDROOT
BRANCH   3   5
ATOM      5  CA  THR A   3       2.336  -5.189 -12.362  0.00  0.00    +0.187 C 
BRANCH   5   6
ATOM      6  C   THR A   3       1.191  -6.145 -12.762  0.00  0.00    +0.237 C 
ATOM      7  O   THR A   3       0.281  -5.766 -13.497  0.00  0.00    -0.274 OA
ATOM      8  N   THR A   4       1.446  -7.478 -12.488  0.00  0.00    -0.294 N 
ATOM      9  H   THR A   4       1.752  -7.629 -11.526  0.00  0.00    +0.150 HD
BRANCH   8  10
ATOM     10  CA  THR A   4       0.495  -8.520 -12.934  0.00  0.00    +0.241 C 
BRANCH  10  11
ATOM     11  C   THR A   4       0.460  -9.797 -12.053  0.00  0.00    +0.257 C 
ATOM     12  O   THR A   4       1.576 -10.328 -11.805  0.00  0.00    -0.203 OA
ATOM     13  OXT THR A   4      -0.694 -10.073 -11.601  0.00  0.00    -0.203 OA
ENDBRANCH  10  11
BRANCH  10  14
ATOM     14  CB  THR A   4       0.902  -9.095 -14.309  0.00  0.00    +0.149 C 
ATOM     15  CG2 THR A   4      -0.033 -10.209 -14.761  0.00  0.00    +0.041 C 
BRANCH  14  16
ATOM     16  OG1 THR A   4       0.847  -8.098 -15.347  0.00  0.00    -0.389 OA
ATOM     17  H   THR A   4       1.267  -7.294 -14.932  0.00  0.00    +0.210 HD
ENDBRANCH  14  16
ENDBRANCH  10  14
ENDBRANCH   8  10
ENDBRANCH   5   6
BRANCH   5  18
ATOM     18  CB  THR A   3       3.483  -5.389 -13.385  0.00  0.00    +0.141 C 
ATOM     19  CG2 THR A   3       4.705  -6.125 -12.839  0.00  0.00    +0.040 C 
BRANCH  18  20
ATOM     20  OG1 THR A   3       2.988  -6.117 -14.526  0.00  0.00    -0.390 OA
ATOM     21  H   THR A   3       3.736  -6.205 -15.147  0.00  0.00    +0.210 HD
ENDBRANCH  18  20
ENDBRANCH   5  18
ENDBRANCH   3   5
BRANCH   1  22
ATOM     22  CA  ASP A   2       3.545  -4.918  -8.708  0.00  0.00    +0.175 C 
BRANCH  22  25
ATOM     23  C   ILE A   1       1.329  -4.879  -7.650  0.00  0.00    +0.199 C 
ATOM     24  O   ILE A   1       0.920  -5.715  -8.428  0.00  0.00    -0.278 OA
ATOM     25  N   ASP A   2       2.651  -4.476  -7.610  0.00  0.00    -0.304 N 
ATOM     26  H   ASP A   2       2.737  -3.444  -7.565  0.00  0.00    +0.149 HD
BRANCH  23  27
ATOM     27  CA  ILE A   1       0.451  -4.264  -6.541  0.00  0.00    +0.016 C 
BRANCH  27  28
ATOM     28  N   ILE A   1       0.749  -2.783  -6.495  0.00  0.00    +0.386 N 
ATOM     29  H   ILE A   1       0.862  -2.523  -5.507  0.00  0.00    -0.089 HD
ATOM     30  H   ILE A   1       0.017  -2.202  -6.901  0.00  0.00    -0.089 HD
ATOM     31  H   ILE A   1       1.655  -2.610  -6.951  0.00  0.00    -0.089 HD
ENDBRANCH  27  28
BRANCH  27  32
ATOM     32  CB  ILE A   1      -1.061  -4.502  -6.751  0.00  0.00    -0.020 C 
ATOM     33  CG2 ILE A   1      -1.642  -5.158  -5.487  0.00  0.00    +0.006 C 
BRANCH  32  34
ATOM     34  CG1 ILE A   1      -1.823  -3.192  -7.065  0.00  0.00    -0.001 C 
ATOM     35  CD1 ILE A   1      -3.339  -3.342  -7.013  0.00  0.00    +0.004 C 
ENDBRANCH  32  34
ENDBRANCH  27  32
ENDBRANCH  23  27
ENDBRANCH  22  25
BRANCH  22  36
ATOM     36  CB  ASP A   2       3.659  -6.436  -8.703  0.00  0.00    +0.189 C 
BRANCH  36  37
ATOM     37  CG  ASP A   2       4.551  -6.961  -7.580  0.00  0.00    +0.236 C 
ATOM     38  OD1 ASP A   2       5.627  -7.526  -7.962  0.00  0.00    -0.205 OA
ATOM     39  OD2 ASP A   2       4.181  -6.666  -6.415  0.00  0.00    -0.205 OA
ENDBRANCH  36  37
ENDBRANCH  22  36
ENDBRANCH   1  22
TORSDOF 16
ENDMDL
MODEL 2
REMARK VINA RESULT:      -7.0      2.954      5.316
REMARK  Name = IDTT_min.pdb
REMARK  20 active torsions:
REMARK  status: ('A' for Active; 'I' for Inactive)
REMARK    1  A    between atoms: N_1  and  CA_2
REMARK    2  A    between atoms: CA_2  and  C_3
REMARK    3  A    between atoms: CA_2  and  CB_5
REMARK    4  A    between atoms: CB_5  and  CG1_6
REMARK    5  A    between atoms: CB_5  and  CG2_7
REMARK    6  A    between atoms: CG1_6  and  CD1_8
REMARK    7  A    between atoms: N_9  and  CA_10
REMARK    8  A    between atoms: CA_10  and  C_11
REMARK    9  A    between atoms: CA_10  and  CB_13
REMARK   10  A    between atoms: CB_13  and  CG_14
REMARK   11  A    between atoms: N_17  and  CA_18
REMARK   12  A    between atoms: CA_18  and  C_19
REMARK   13  A    between atoms: CA_18  and  CB_21
REMARK   14  A    between atoms: CB_21  and  OG1_22
REMARK   15  A    between atoms: CB_21  and  CG2_23
REMARK   16  A    between atoms: N_24  and  CA_25
REMARK   17  A    between atoms: CA_25  and  C_26
REMARK   18  A    between atoms: CA_25  and  CB_29
REMARK   19  A    between atoms: CB_29  and  OG1_30
REMARK   20  A    between atoms: CB_29  and  CG2_31
REMARK                            x       y       z     vdW  Elec       q    Type
REMARK                         _______ _______ _______ _____ _____    ______ ____
ROOT
ATOM      1  C   ASP A   2       4.344  -4.860  -9.250  0.00  0.00    +0.235 C 
ATOM      2  O   ASP A   2       4.887  -4.139  -8.422  0.00  0.00    -0.274 OA
ATOM      3  N   THR A   3       5.027  -5.876  -9.902  0.00  0.00    -0.300 N 
ATOM      4  H   THR A   3       4.493  -6.725 -10.023  0.00  0.00    +0.150 HD
ENDROOT
BRANCH   3   5
ATOM      5  CA  THR A   3       6.483  -6.023  -9.757  0.00  0.00    +0.187 C 
BRANCH   5   6
ATOM      6  C   THR A   3       7.260  -5.337 -10.902  0.00  0.00    +0.237 C 
ATOM      7  O   THR A   3       8.447  -5.045 -10.773  0.00  0.00    -0.274 OA
ATOM      8  N   THR A   4       6.611  -5.372 -12.125  0.00  0.00    -0.294 N 
ATOM      9  H   THR A   4       5.646  -5.044 -12.066  0.00  0.00    +0.150 HD
BRANCH   8  10
ATOM     10  CA  THR A   4       7.291  -4.868 -13.338  0.00  0.00    +0.241 C 
BRANCH  10  11
ATOM     11  C   THR A   4       6.950  -3.404 -13.722  0.00  0.00    +0.257 C 
ATOM     12  O   THR A   4       5.956  -2.896 -13.135  0.00  0.00    -0.203 OA
ATOM     13  OXT THR A   4       7.798  -2.871 -14.501  0.00  0.00    -0.203 OA
ENDBRANCH  10  11
BRANCH  10  14
ATOM     14  CB  THR A   4       6.833  -5.640 -14.595  0.00  0.00    +0.149 C 
ATOM     15  CG2 THR A   4       6.495  -7.092 -14.281  0.00  0.00    +0.041 C 
BRANCH  14  16
ATOM     16  OG1 THR A   4       5.635  -5.079 -15.164  0.00  0.00    -0.389 OA
ATOM     17  H   THR A   4       4.935  -5.764 -14.978  0.00  0.00    +0.210 HD
ENDBRANCH  14  16
ENDBRANCH  10  14
ENDBRANCH   8  10
ENDBRANCH   5   6
BRANCH   5  18
ATOM     18  CB  THR A   3       6.839  -7.531  -9.797  0.00  0.00    +0.141 C 
ATOM     19  CG2 THR A   3       5.688  -8.448 -10.206  0.00  0.00    +0.040 C 
BRANCH  18  20
ATOM     20  OG1 THR A   3       7.933  -7.743 -10.711  0.00  0.00    -0.390 OA
ATOM     21  H   THR A   3       7.623  -8.390 -11.373  0.00  0.00    +0.210 HD
ENDBRANCH  18  20
ENDBRANCH   5  18
ENDBRANCH   3   5
BRANCH   1  22
ATOM     22  CA  ASP A   2       2.821  -4.829  -9.535  0.00  0.00    +0.175 C 
BRANCH  22  25
ATOM     23  C   ILE A   1       1.220  -5.008  -7.682  0.00  0.00    +0.199 C 
ATOM     24  O   ILE A   1       1.199  -6.218  -7.790  0.00  0.00    -0.278 OA
ATOM     25  N   ASP A   2       2.071  -4.206  -8.417  0.00  0.00    -0.304 N 
ATOM     26  H   ASP A   2       1.577  -3.389  -8.820  0.00  0.00    +0.149 HD
BRANCH  23  27
ATOM     27  CA  ILE A   1       0.390  -4.247  -6.629  0.00  0.00    +0.016 C 
BRANCH  27  28
ATOM     28  N   ILE A   1       0.785  -2.790  -6.706  0.00  0.00    +0.386 N 
ATOM     29  H   ILE A   1       1.049  -2.594  -7.680  0.00  0.00    -0.089 HD
ATOM     30  H   ILE A   1       1.568  -2.543  -6.102  0.00  0.00    -0.089 HD
ATOM     31  H   ILE A   1      -0.038  -2.208  -6.501  0.00  0.00    -0.089 HD
ENDBRANCH  27  28
BRANCH  27  32
ATOM     32  CB  ILE A   1      -1.136  -4.401  -6.819  0.00  0.00    -0.020 C 
ATOM     33  CG2 ILE A   1      -1.718  -5.138  -5.600  0.00  0.00    +0.006 C 
BRANCH  32  34
ATOM     34  CG1 ILE A   1      -1.845  -3.037  -6.999  0.00  0.00    -0.001 C 
ATOM     35  CD1 ILE A   1      -3.366  -3.135  -6.984  0.00  0.00    +0.004 C 
ENDBRANCH  32  34
ENDBRANCH  27  32
ENDBRANCH  23  27
ENDBRANCH  22  25
BRANCH  22  36
ATOM     36  CB  ASP A   2       2.565  -4.059 -10.823  0.00  0.00    +0.189 C 
BRANCH  36  37
ATOM     37  CG  ASP A   2       2.520  -4.961 -12.055  0.00  0.00    +0.236 C 
ATOM     38  OD1 ASP A   2       3.625  -5.083 -12.678  0.00  0.00    -0.205 OA
ATOM     39  OD2 ASP A   2       1.436  -5.572 -12.236  0.00  0.00    -0.205 OA
ENDBRANCH  36  37
ENDBRANCH  22  36
ENDBRANCH   1  22
TORSDOF 16
ENDMDL
MODEL 3
REMARK VINA RESULT:      -7.0      2.276      3.280
REMARK  Name = IDTT_min.pdb
REMARK  20 active torsions:
REMARK  status: ('A' for Active; 'I' for Inactive)
REMARK    1  A    between atoms: N_1  and  CA_2
REMARK    2  A    between atoms: CA_2  and  C_3
REMARK    3  A    between atoms: CA_2  and  CB_5
REMARK    4  A    between atoms: CB_5  and  CG1_6
REMARK    5  A    between atoms: CB_5  and  CG2_7
REMARK    6  A    between atoms: CG1_6  and  CD1_8
REMARK    7  A    between atoms: N_9  and  CA_10
REMARK    8  A    between atoms: CA_10  and  C_11
REMARK    9  A    between atoms: CA_10  and  CB_13
REMARK   10  A    between atoms: CB_13  and  CG_14
REMARK   11  A    between atoms: N_17  and  CA_18
REMARK   12  A    between atoms: CA_18  and  C_19
REMARK   13  A    between atoms: CA_18  and  CB_21
REMARK   14  A    between atoms: CB_21  and  OG1_22
REMARK   15  A    between atoms: CB_21  and  CG2_23
REMARK   16  A    between atoms: N_24  and  CA_25
REMARK   17  A    between atoms: CA_25  and  C_26
REMARK   18  A    between atoms: CA_25  and  CB_29
REMARK   19  A    between atoms: CB_29  and  OG1_30
REMARK   20  A    between atoms: CB_29  and  CG2_31
REMARK                            x       y       z     vdW  Elec       q    Type
REMARK                         _______ _______ _______ _____ _____    ______ ____
ROOT
ATOM      1  C   ASP A   2       3.199  -4.389 -10.326  0.00  0.00    +0.235 C 
ATOM      2  O   ASP A   2       2.867  -3.230 -10.536  0.00  0.00    -0.274 OA
ATOM      3  N   THR A   3       4.352  -4.935 -10.869  0.00  0.00    -0.300 N 
ATOM      4  H   THR A   3       4.863  -5.539 -10.241  0.00  0.00    +0.150 HD
ENDROOT
BRANCH   3   5
ATOM      5  CA  THR A   3       5.141  -4.197 -11.867  0.00  0.00    +0.187 C 
BRANCH   5   6
ATOM      6  C   THR A   3       4.862  -4.677 -13.308  0.00  0.00    +0.237 C 
ATOM      7  O   THR A   3       5.588  -4.332 -14.239  0.00  0.00    -0.274 OA
ATOM      8  N   THR A   4       3.962  -5.726 -13.390  0.00  0.00    -0.294 N 
ATOM      9  H   THR A   4       3.100  -5.543 -12.873  0.00  0.00    +0.150 HD
BRANCH   8  10
ATOM     10  CA  THR A   4       3.697  -6.373 -14.693  0.00  0.00    +0.241 C 
BRANCH  10  11
ATOM     11  C   THR A   4       2.208  -6.385 -15.130  0.00  0.00    +0.257 C 
ATOM     12  O   THR A   4       1.898  -7.230 -16.014  0.00  0.00    -0.203 OA
ATOM     13  OXT THR A   4       1.470  -5.611 -14.448  0.00  0.00    -0.203 OA
ENDBRANCH  10  11
BRANCH  10  14
ATOM     14  CB  THR A   4       4.023  -7.882 -14.642  0.00  0.00    +0.149 C 
ATOM     15  CG2 THR A   4       5.420  -8.146 -14.095  0.00  0.00    +0.041 C 
BRANCH  14  16
ATOM     16  OG1 THR A   4       3.126  -8.598 -13.772  0.00  0.00    -0.389 OA
ATOM     17  H   THR A   4       3.634  -8.684 -12.918  0.00  0.00    +0.210 HD
ENDBRANCH  14  16
ENDBRANCH  10  14
ENDBRANCH   8  10
ENDBRANCH   5   6
BRANCH   5  18
ATOM     18  CB  THR A   3       6.647  -4.431 -11.586  0.00  0.00    +0.141 C 
ATOM     19  CG2 THR A   3       7.029  -4.424 -10.107  0.00  0.00    +0.040 C 
BRANCH  18  20
ATOM     20  OG1 THR A   3       7.051  -5.694 -12.151  0.00  0.00    -0.390 OA
ATOM     21  H   THR A   3       6.258  -6.264 -12.157  0.00  0.00    +0.210 HD
ENDBRANCH  18  20
ENDBRANCH   5  18
ENDBRANCH   3   5
BRANCH   1  22
ATOM     22  CA  ASP A   2       2.472  -5.311  -9.313  0.00  0.00    +0.175 C 
BRANCH  22  25
ATOM     23  C   ILE A   1       1.629  -4.629  -7.110  0.00  0.00    +0.199 C 
ATOM     24  O   ILE A   1       2.590  -5.133  -6.564  0.00  0.00    -0.278 OA
ATOM     25  N   ASP A   2       1.505  -4.551  -8.484  0.00  0.00    -0.304 N 
ATOM     26  H   ASP A   2       0.562  -4.840  -8.801  0.00  0.00    +0.149 HD
BRANCH  23  27
ATOM     27  CA  ILE A   1       0.504  -3.915  -6.335  0.00  0.00    +0.016 C 
BRANCH  27  28
ATOM     28  N   ILE A   1       0.703  -2.427  -6.515  0.00  0.00    +0.386 N 
ATOM     29  H   ILE A   1      -0.030  -2.094  -7.154  0.00  0.00    -0.089 HD
ATOM     30  H   ILE A   1       1.610  -2.176  -6.905  0.00  0.00    -0.089 HD
ATOM     31  H   ILE A   1       0.545  -1.956  -5.614  0.00  0.00    -0.089 HD
ENDBRANCH  27  28
BRANCH  27  32
ATOM     32  CB  ILE A   1      -0.914  -4.327  -6.787  0.00  0.00    -0.020 C 
ATOM     33  CG2 ILE A   1      -1.564  -5.174  -5.680  0.00  0.00    +0.006 C 
BRANCH  32  34
ATOM     34  CG1 ILE A   1      -1.806  -3.104  -7.109  0.00  0.00    -0.001 C 
ATOM     35  CD1 ILE A   1      -3.297  -3.379  -6.950  0.00  0.00    +0.004 C 
ENDBRANCH  32  34
ENDBRANCH  27  32
ENDBRANCH  23  27
ENDBRANCH  22  25
BRANCH  22  36
ATOM     36  CB  ASP A   2       1.749  -6.417 -10.068  0.00  0.00    +0.189 C 
BRANCH  36  37
ATOM     37  CG  ASP A   2       2.547  -7.719 -10.121  0.00  0.00    +0.236 C 
ATOM     38  OD1 ASP A   2       3.384  -7.803 -11.078  0.00  0.00    -0.205 OA
ATOM     39  OD2 ASP A   2       2.374  -8.496  -9.148  0.00  0.00    -0.205 OA
ENDBRANCH  36  37
ENDBRANCH  22  36
ENDBRANCH   1  22
TORSDOF 16
ENDMDL
MODEL 4
REMARK VINA RESULT:      -6.9      4.224      8.709
REMARK  Name = IDTT_min.pdb
REMARK  20 active torsions:
REMARK  status: ('A' for Active; 'I' for Inactive)
REMARK    1  A    between atoms: N_1  and  CA_2
REMARK    2  A    between atoms: CA_2  and  C_3
REMARK    3  A    between atoms: CA_2  and  CB_5
REMARK    4  A    between atoms: CB_5  and  CG1_6
REMARK    5  A    between atoms: CB_5  and  CG2_7
REMARK    6  A    between atoms: CG1_6  and  CD1_8
REMARK    7  A    between atoms: N_9  and  CA_10
REMARK    8  A    between atoms: CA_10  and  C_11
REMARK    9  A    between atoms: CA_10  and  CB_13
REMARK   10  A    between atoms: CB_13  and  CG_14
REMARK   11  A    between atoms: N_17  and  CA_18
REMARK   12  A    between atoms: CA_18  and  C_19
REMARK   13  A    between atoms: CA_18  and  CB_21
REMARK   14  A    between atoms: CB_21  and  OG1_22
REMARK   15  A    between atoms: CB_21  and  CG2_23
REMARK   16  A    between atoms: N_24  and  CA_25
REMARK   17  A    between atoms: CA_25  and  C_26
REMARK   18  A    between atoms: CA_25  and  CB_29
REMARK   19  A    between atoms: CB_29  and  OG1_30
REMARK   20  A    between atoms: CB_29  and  CG2_31
REMARK                            x       y       z     vdW  Elec       q    Type
REMARK                         _______ _______ _______ _____ _____    ______ ____
ROOT
ATOM      1  C   ASP A   2       5.559  -4.163 -13.043  0.00  0.00    +0.235 C 
ATOM      2  O   ASP A   2       5.457  -2.952 -13.200  0.00  0.00    -0.274 OA
ATOM      3  N   THR A   3       4.551  -4.917 -12.461  0.00  0.00    -0.300 N 
ATOM      4  H   THR A   3       4.397  -5.814 -12.899  0.00  0.00    +0.150 HD
ENDROOT
BRANCH   3   5
ATOM      5  CA  THR A   3       3.382  -4.271 -11.844  0.00  0.00    +0.187 C 
BRANCH   5   6
ATOM      6  C   THR A   3       3.597  -3.980 -10.343  0.00  0.00    +0.237 C 
ATOM      7  O   THR A   3       2.921  -3.133  -9.762  0.00  0.00    -0.274 OA
ATOM      8  N   THR A   4       4.356  -4.933  -9.686  0.00  0.00    -0.294 N 
ATOM      9  H   THR A   4       5.235  -5.134 -10.167  0.00  0.00    +0.150 HD
BRANCH   8  10
ATOM     10  CA  THR A   4       4.536  -4.854  -8.220  0.00  0.00    +0.241 C 
BRANCH  10  11
ATOM     11  C   THR A   4       5.872  -5.439  -7.689  0.00  0.00    +0.257 C 
ATOM     12  O   THR A   4       6.721  -4.598  -7.285  0.00  0.00    -0.203 OA
ATOM     13  OXT THR A   4       5.885  -6.706  -7.626  0.00  0.00    -0.203 OA
ENDBRANCH  10  11
BRANCH  10  14
ATOM     14  CB  THR A   4       3.495  -5.725  -7.483  0.00  0.00    +0.149 C 
ATOM     15  CG2 THR A   4       2.322  -4.900  -6.969  0.00  0.00    +0.041 C 
BRANCH  14  16
ATOM     16  OG1 THR A   4       2.917  -6.721  -8.349  0.00  0.00    -0.389 OA
ATOM     17  H   THR A   4       1.986  -6.399  -8.499  0.00  0.00    +0.210 HD
ENDBRANCH  14  16
ENDBRANCH  10  14
ENDBRANCH   8  10
ENDBRANCH   5   6
BRANCH   5  18
ATOM     18  CB  THR A   3       2.165  -5.223 -11.961  0.00  0.00    +0.141 C 
ATOM     19  CG2 THR A   3       2.460  -6.553 -12.652  0.00  0.00    +0.040 C 
BRANCH  18  20
ATOM     20  OG1 THR A   3       1.645  -5.501 -10.646  0.00  0.00    -0.390 OA
ATOM     21  H   THR A   3       1.355  -6.434 -10.652  0.00  0.00    +0.210 HD
ENDBRANCH  18  20
ENDBRANCH   5  18
ENDBRANCH   3   5
BRANCH   1  22
ATOM     22  CA  ASP A   2       6.730  -4.999 -13.619  0.00  0.00    +0.175 C 
BRANCH  22  25
ATOM     23  C   ILE A   1       7.307  -4.705 -15.988  0.00  0.00    +0.199 C 
ATOM     24  O   ILE A   1       6.486  -5.539 -16.313  0.00  0.00    -0.278 OA
ATOM     25  N   ASP A   2       7.450  -4.262 -14.687  0.00  0.00    -0.304 N 
ATOM     26  H   ASP A   2       8.445  -4.233 -14.398  0.00  0.00    +0.149 HD
BRANCH  23  27
ATOM     27  CA  ILE A   1       8.192  -3.960 -17.007  0.00  0.00    +0.016 C 
BRANCH  27  28
ATOM     28  N   ILE A   1       7.460  -3.957 -18.329  0.00  0.00    +0.386 N 
ATOM     29  H   ILE A   1       7.510  -3.003 -18.707  0.00  0.00    -0.089 HD
ATOM     30  H   ILE A   1       6.479  -4.226 -18.257  0.00  0.00    -0.089 HD
ATOM     31  H   ILE A   1       7.962  -4.564 -18.991  0.00  0.00    -0.089 HD
ENDBRANCH  27  28
BRANCH  27  32
ATOM     32  CB  ILE A   1       8.540  -2.516 -16.581  0.00  0.00    -0.020 C 
ATOM     33  CG2 ILE A   1       9.940  -2.163 -17.112  0.00  0.00    +0.006 C 
BRANCH  32  34
ATOM     34  CG1 ILE A   1       7.505  -1.487 -17.097  0.00  0.00    -0.001 C 
ATOM     35  CD1 ILE A   1       8.119  -0.380 -17.946  0.00  0.00    +0.004 C 
ENDBRANCH  32  34
ENDBRANCH  27  32
ENDBRANCH  23  27
ENDBRANCH  22  25
BRANCH  22  36
ATOM     36  CB  ASP A   2       7.693  -5.356 -12.496  0.00  0.00    +0.189 C 
BRANCH  36  37
ATOM     37  CG  ASP A   2       8.030  -4.164 -11.602  0.00  0.00    +0.236 C 
ATOM     38  OD1 ASP A   2       7.516  -4.198 -10.437  0.00  0.00    -0.205 OA
ATOM     39  OD2 ASP A   2       8.869  -3.356 -12.075  0.00  0.00    -0.205 OA
ENDBRANCH  36  37
ENDBRANCH  22  36
ENDBRANCH   1  22
TORSDOF 16
ENDMDL
MODEL 5
REMARK VINA RESULT:      -6.9      2.355      6.086
REMARK  Name = IDTT_min.pdb
REMARK  20 active torsions:
REMARK  status: ('A' for Active; 'I' for Inactive)
REMARK    1  A    between atoms: N_1  and  CA_2
REMARK    2  A    between atoms: CA_2  and  C_3
REMARK    3  A    between atoms: CA_2  and  CB_5
REMARK    4  A    between atoms: CB_5  and  CG1_6
REMARK    5  A    between atoms: CB_5  and  CG2_7
REMARK    6  A    between atoms: CG1_6  and  CD1_8
REMARK    7  A    between atoms: N_9  and  CA_10
REMARK    8  A    between atoms: CA_10  and  C_11
REMARK    9  A    between atoms: CA_10  and  CB_13
REMARK   10  A    between atoms: CB_13  and  CG_14
REMARK   11  A    between atoms: N_17  and  CA_18
REMARK   12  A    between atoms: CA_18  and  C_19
REMARK   13  A    between atoms: CA_18  and  CB_21
REMARK   14  A    between atoms: CB_21  and  OG1_22
REMARK   15  A    between atoms: CB_21  and  CG2_23
REMARK   16  A    between atoms: N_24  and  CA_25
REMARK   17  A    between atoms: CA_25  and  C_26
REMARK   18  A    between atoms: CA_25  and  CB_29
REMARK   19  A    between atoms: CB_29  and  OG1_30
REMARK   20  A    between atoms: CB_29  and  CG2_31
REMARK                            x       y       z     vdW  Elec       q    Type
REMARK                         _______ _______ _______ _____ _____    ______ ____
ROOT
ATOM      1  C   ASP A   2       3.641  -6.428 -10.007  0.00  0.00    +0.235 C 
ATOM      2  O   ASP A   2       4.050  -7.581  -9.980  0.00  0.00    -0.274 OA
ATOM      3  N   THR A   3       4.502  -5.341 -10.043  0.00  0.00    -0.300 N 
ATOM      4  H   THR A   3       4.202  -4.593 -10.652  0.00  0.00    +0.150 HD
ENDROOT
BRANCH   3   5
ATOM      5  CA  THR A   3       5.952  -5.519  -9.875  0.00  0.00    +0.187 C 
BRANCH   5   6
ATOM      6  C   THR A   3       6.383  -5.459  -8.393  0.00  0.00    +0.237 C 
ATOM      7  O   THR A   3       6.488  -4.381  -7.810  0.00  0.00    -0.274 OA
ATOM      8  N   THR A   4       6.331  -6.678  -7.740  0.00  0.00    -0.294 N 
ATOM      9  H   THR A   4       6.816  -7.417  -8.251  0.00  0.00    +0.150 HD
BRANCH   8  10
ATOM     10  CA  THR A   4       6.591  -6.750  -6.286  0.00  0.00    +0.241 C 
BRANCH  10  11
ATOM     11  C   THR A   4       7.637  -7.814  -5.857  0.00  0.00    +0.257 C 
ATOM     12  O   THR A   4       7.765  -8.804  -6.627  0.00  0.00    -0.203 OA
ATOM     13  OXT THR A   4       8.313  -7.481  -4.836  0.00  0.00    -0.203 OA
ENDBRANCH  10  11
BRANCH  10  14
ATOM     14  CB  THR A   4       5.334  -7.215  -5.517  0.00  0.00    +0.149 C 
ATOM     15  CG2 THR A   4       4.324  -7.894  -6.432  0.00  0.00    +0.041 C 
BRANCH  14  16
ATOM     16  OG1 THR A   4       5.653  -8.188  -4.504  0.00  0.00    -0.389 OA
ATOM     17  H   THR A   4       4.906  -8.846  -4.558  0.00  0.00    +0.210 HD
ENDBRANCH  14  16
ENDBRANCH  10  14
ENDBRANCH   8  10
ENDBRANCH   5   6
BRANCH   5  18
ATOM     18  CB  THR A   3       6.685  -4.371 -10.615  0.00  0.00    +0.141 C 
ATOM     19  CG2 THR A   3       8.073  -4.735 -11.141  0.00  0.00    +0.040 C 
BRANCH  18  20
ATOM     20  OG1 THR A   3       5.882  -3.926 -11.727  0.00  0.00    -0.390 OA
ATOM     21  H   THR A   3       6.299  -3.109 -12.062  0.00  0.00    +0.210 HD
ENDBRANCH  18  20
ENDBRANCH   5  18
ENDBRANCH   3   5
BRANCH   1  22
ATOM     22  CA  ASP A   2       2.143  -6.062 -10.170  0.00  0.00    +0.175 C 
BRANCH  22  25
ATOM     23  C   ILE A   1       1.135  -5.608  -7.977  0.00  0.00    +0.199 C 
ATOM     24  O   ILE A   1       1.151  -6.791  -7.702  0.00  0.00    -0.278 OA
ATOM     25  N   ASP A   2       1.703  -5.100  -9.130  0.00  0.00    -0.304 N 
ATOM     26  H   ASP A   2       1.072  -4.429  -9.605  0.00  0.00    +0.149 HD
BRANCH  23  27
ATOM     27  CA  ILE A   1       0.592  -4.532  -7.016  0.00  0.00    +0.016 C 
BRANCH  27  28
ATOM     28  N   ILE A   1       1.097  -3.193  -7.501  0.00  0.00    +0.386 N 
ATOM     29  H   ILE A   1       1.210  -3.258  -8.521  0.00  0.00    -0.089 HD
ATOM     30  H   ILE A   1       1.989  -2.916  -7.093  0.00  0.00    -0.089 HD
ATOM     31  H   ILE A   1       0.375  -2.480  -7.329  0.00  0.00    -0.089 HD
ENDBRANCH  27  28
BRANCH  27  32
ATOM     32  CB  ILE A   1      -0.950  -4.520  -6.914  0.00  0.00    -0.020 C 
ATOM     33  CG2 ILE A   1      -1.365  -5.145  -5.571  0.00  0.00    +0.006 C 
BRANCH  32  34
ATOM     34  CG1 ILE A   1      -1.534  -3.092  -7.035  0.00  0.00    -0.001 C 
ATOM     35  CD1 ILE A   1      -3.048  -3.067  -7.211  0.00  0.00    +0.004 C 
ENDBRANCH  32  34
ENDBRANCH  27  32
ENDBRANCH  23  27
ENDBRANCH  22  25
BRANCH  22  36
ATOM     36  CB  ASP A   2       1.918  -5.468 -11.553  0.00  0.00    +0.189 C 
BRANCH  36  37
ATOM     37  CG  ASP A   2       1.131  -6.397 -12.476  0.00  0.00    +0.236 C 
ATOM     38  OD1 ASP A   2       0.469  -5.813 -13.395  0.00  0.00    -0.205 OA
ATOM     39  OD2 ASP A   2       1.327  -7.626 -12.299  0.00  0.00    -0.205 OA
ENDBRANCH  36  37
ENDBRANCH  22  36
ENDBRANCH   1  22
TORSDOF 16
ENDMDL
MODEL 6
REMARK VINA RESULT:      -6.9      2.993      5.009
REMARK  Name = IDTT_min.pdb
REMARK  20 active torsions:
REMARK  status: ('A' for Active; 'I' for Inactive)
REMARK    1  A    between atoms: N_1  and  CA_2
REMARK    2  A    between atoms: CA_2  and  C_3
REMARK    3  A    between atoms: CA_2  and  CB_5
REMARK    4  A    between atoms: CB_5  and  CG1_6
REMARK    5  A    between atoms: CB_5  and  CG2_7
REMARK    6  A    between atoms: CG1_6  and  CD1_8
REMARK    7  A    between atoms: N_9  and  CA_10
REMARK    8  A    between atoms: CA_10  and  C_11
REMARK    9  A    between atoms: CA_10  and  CB_13
REMARK   10  A    between atoms: CB_13  and  CG_14
REMARK   11  A    between atoms: N_17  and  CA_18
REMARK   12  A    between atoms: CA_18  and  C_19
REMARK   13  A    between atoms: CA_18  and  CB_21
REMARK   14  A    between atoms: CB_21  and  OG1_22
REMARK   15  A    between atoms: CB_21  and  CG2_23
REMARK   16  A    between atoms: N_24  and  CA_25
REMARK   17  A    between atoms: CA_25  and  C_26
REMARK   18  A    between atoms: CA_25  and  CB_29
REMARK   19  A    between atoms: CB_29  and  OG1_30
REMARK   20  A    between atoms: CB_29  and  CG2_31
REMARK                            x       y       z     vdW  Elec       q    Type
REMARK                         _______ _______ _______ _____ _____    ______ ____
ROOT
ATOM      1  C   ASP A   2       3.205  -4.444 -10.487  0.00  0.00    +0.235 C 
ATOM      2  O   ASP A   2       2.935  -3.257 -10.622  0.00  0.00    -0.274 OA
ATOM      3  N   THR A   3       4.363  -4.999 -11.011  0.00  0.00    -0.300 N 
ATOM      4  H   THR A   3       4.811  -5.674 -10.406  0.00  0.00    +0.150 HD
ENDROOT
BRANCH   3   5
ATOM      5  CA  THR A   3       5.238  -4.224 -11.903  0.00  0.00    +0.187 C 
BRANCH   5   6
ATOM      6  C   THR A   3       5.203  -4.745 -13.357  0.00  0.00    +0.237 C 
ATOM      7  O   THR A   3       4.212  -5.328 -13.794  0.00  0.00    -0.274 OA
ATOM      8  N   THR A   4       6.209  -4.239 -14.162  0.00  0.00    -0.294 N 
ATOM      9  H   THR A   4       7.134  -4.338 -13.742  0.00  0.00    +0.150 HD
BRANCH   8  10
ATOM     10  CA  THR A   4       6.224  -4.548 -15.609  0.00  0.00    +0.241 C 
BRANCH  10  11
ATOM     11  C   THR A   4       6.966  -5.856 -15.994  0.00  0.00    +0.257 C 
ATOM     12  O   THR A   4       7.959  -6.159 -15.277  0.00  0.00    -0.203 OA
ATOM     13  OXT THR A   4       6.396  -6.512 -16.918  0.00  0.00    -0.203 OA
ENDBRANCH  10  11
BRANCH  10  14
ATOM     14  CB  THR A   4       7.023  -3.487 -16.398  0.00  0.00    +0.149 C 
ATOM     15  CG2 THR A   4       7.955  -2.688 -15.496  0.00  0.00    +0.041 C 
BRANCH  14  16
ATOM     16  OG1 THR A   4       7.870  -4.085 -17.397  0.00  0.00    -0.389 OA
ATOM     17  H   THR A   4       8.794  -3.923 -17.059  0.00  0.00    +0.210 HD
ENDBRANCH  14  16
ENDBRANCH  10  14
ENDBRANCH   8  10
ENDBRANCH   5   6
BRANCH   5  18
ATOM     18  CB  THR A   3       6.699  -4.351 -11.403  0.00  0.00    +0.141 C 
ATOM     19  CG2 THR A   3       6.854  -4.375  -9.883  0.00  0.00    +0.040 C 
BRANCH  18  20
ATOM     20  OG1 THR A   3       7.288  -5.553 -11.937  0.00  0.00    -0.390 OA
ATOM     21  H   THR A   3       6.550  -6.113 -12.245  0.00  0.00    +0.210 HD
ENDBRANCH  18  20
ENDBRANCH   5  18
ENDBRANCH   3   5
BRANCH   1  22
ATOM     22  CA  ASP A   2       2.383  -5.405  -9.592  0.00  0.00    +0.175 C 
BRANCH  22  25
ATOM     23  C   ILE A   1       1.709  -4.758  -7.321  0.00  0.00    +0.199 C 
ATOM     24  O   ILE A   1       2.710  -5.265  -6.857  0.00  0.00    -0.278 OA
ATOM     25  N   ASP A   2       1.480  -4.661  -8.681  0.00  0.00    -0.304 N 
ATOM     26  H   ASP A   2       0.516  -4.949  -8.929  0.00  0.00    +0.149 HD
BRANCH  23  27
ATOM     27  CA  ILE A   1       0.645  -4.058  -6.452  0.00  0.00    +0.016 C 
BRANCH  27  28
ATOM     28  N   ILE A   1       0.860  -2.568  -6.583  0.00  0.00    +0.386 N 
ATOM     29  H   ILE A   1       1.431  -2.268  -5.783  0.00  0.00    -0.089 HD
ATOM     30  H   ILE A   1      -0.003  -2.025  -6.587  0.00  0.00    -0.089 HD
ATOM     31  H   ILE A   1       1.416  -2.383  -7.429  0.00  0.00    -0.089 HD
ENDBRANCH  27  28
BRANCH  27  32
ATOM     32  CB  ILE A   1      -0.805  -4.429  -6.837  0.00  0.00    -0.020 C 
ATOM     33  CG2 ILE A   1      -1.424  -5.263  -5.703  0.00  0.00    +0.006 C 
BRANCH  32  34
ATOM     34  CG1 ILE A   1      -1.677  -3.179  -7.110  0.00  0.00    -0.001 C 
ATOM     35  CD1 ILE A   1      -3.174  -3.445  -7.000  0.00  0.00    +0.004 C 
ENDBRANCH  32  34
ENDBRANCH  27  32
ENDBRANCH  23  27
ENDBRANCH  22  25
BRANCH  22  36
ATOM     36  CB  ASP A   2       1.571  -6.343 -10.473  0.00  0.00    +0.189 C 
BRANCH  36  37
ATOM     37  CG  ASP A   2       2.232  -7.708 -10.655  0.00  0.00    +0.236 C 
ATOM     38  OD1 ASP A   2       1.751  -8.644  -9.937  0.00  0.00    -0.205 OA
ATOM     39  OD2 ASP A   2       3.086  -7.774 -11.576  0.00  0.00    -0.205 OA
ENDBRANCH  36  37
ENDBRANCH  22  36
ENDBRANCH   1  22
TORSDOF 16
ENDMDL
MODEL 7
REMARK VINA RESULT:      -6.8      3.892      7.907
REMARK  Name = IDTT_min.pdb
REMARK  20 active torsions:
REMARK  status: ('A' for Active; 'I' for Inactive)
REMARK    1  A    between atoms: N_1  and  CA_2
REMARK    2  A    between atoms: CA_2  and  C_3
REMARK    3  A    between atoms: CA_2  and  CB_5
REMARK    4  A    between atoms: CB_5  and  CG1_6
REMARK    5  A    between atoms: CB_5  and  CG2_7
REMARK    6  A    between atoms: CG1_6  and  CD1_8
REMARK    7  A    between atoms: N_9  and  CA_10
REMARK    8  A    between atoms: CA_10  and  C_11
REMARK    9  A    between atoms: CA_10  and  CB_13
REMARK   10  A    between atoms: CB_13  and  CG_14
REMARK   11  A    between atoms: N_17  and  CA_18
REMARK   12  A    between atoms: CA_18  and  C_19
REMARK   13  A    between atoms: CA_18  and  CB_21
REMARK   14  A    between atoms: CB_21  and  OG1_22
REMARK   15  A    between atoms: CB_21  and  CG2_23
REMARK   16  A    between atoms: N_24  and  CA_25
REMARK   17  A    between atoms: CA_25  and  C_26
REMARK   18  A    between atoms: CA_25  and  CB_29
REMARK   19  A    between atoms: CB_29  and  OG1_30
REMARK   20  A    between atoms: CB_29  and  CG2_31
REMARK                            x       y       z     vdW  Elec       q    Type
REMARK                         _______ _______ _______ _____ _____    ______ ____
ROOT
ATOM      1  C   ASP A   2       4.507  -4.599 -11.683  0.00  0.00    +0.235 C 
ATOM      2  O   ASP A   2       4.166  -3.585 -11.087  0.00  0.00    -0.274 OA
ATOM      3  N   THR A   3       3.584  -5.514 -12.167  0.00  0.00    -0.300 N 
ATOM      4  H   THR A   3       3.810  -5.892 -13.077  0.00  0.00    +0.150 HD
ENDROOT
BRANCH   3   5
ATOM      5  CA  THR A   3       2.156  -5.396 -11.835  0.00  0.00    +0.187 C 
BRANCH   5   6
ATOM      6  C   THR A   3       1.848  -5.866 -10.396  0.00  0.00    +0.237 C 
ATOM      7  O   THR A   3       1.868  -7.060 -10.105  0.00  0.00    -0.274 OA
ATOM      8  N   THR A   4       1.862  -4.850  -9.455  0.00  0.00    -0.294 N 
ATOM      9  H   THR A   4       1.285  -4.053  -9.730  0.00  0.00    +0.150 HD
BRANCH   8  10
ATOM     10  CA  THR A   4       1.712  -5.170  -8.019  0.00  0.00    +0.241 C 
BRANCH  10  11
ATOM     11  C   THR A   4       0.847  -4.167  -7.209  0.00  0.00    +0.257 C 
ATOM     12  O   THR A   4       1.336  -3.015  -7.055  0.00  0.00    -0.203 OA
ATOM     13  OXT THR A   4      -0.302  -4.613  -6.907  0.00  0.00    -0.203 OA
ENDBRANCH  10  11
BRANCH  10  14
ATOM     14  CB  THR A   4       3.068  -5.083  -7.284  0.00  0.00    +0.149 C 
ATOM     15  CG2 THR A   4       3.680  -6.458  -7.052  0.00  0.00    +0.041 C 
BRANCH  14  16
ATOM     16  OG1 THR A   4       4.046  -4.348  -8.044  0.00  0.00    -0.389 OA
ATOM     17  H   THR A   4       4.190  -4.906  -8.858  0.00  0.00    +0.210 HD
ENDBRANCH  14  16
ENDBRANCH  10  14
ENDBRANCH   8  10
ENDBRANCH   5   6
BRANCH   5  18
ATOM     18  CB  THR A   3       1.343  -6.297 -12.798  0.00  0.00    +0.141 C 
ATOM     19  CG2 THR A   3       1.341  -5.837 -14.255  0.00  0.00    +0.040 C 
BRANCH  18  20
ATOM     20  OG1 THR A   3       1.859  -7.642 -12.750  0.00  0.00    -0.390 OA
ATOM     21  H   THR A   3       1.668  -7.983 -11.855  0.00  0.00    +0.210 HD
ENDBRANCH  18  20
ENDBRANCH   5  18
ENDBRANCH   3   5
BRANCH   1  22
ATOM     22  CA  ASP A   2       5.971  -4.886 -12.104  0.00  0.00    +0.175 C 
BRANCH  22  25
ATOM     23  C   ILE A   1       7.506  -3.803 -13.685  0.00  0.00    +0.199 C 
ATOM     24  O   ILE A   1       7.602  -4.829 -14.326  0.00  0.00    -0.278 OA
ATOM     25  N   ASP A   2       6.638  -3.665 -12.618  0.00  0.00    -0.304 N 
ATOM     26  H   ASP A   2       7.099  -3.221 -11.803  0.00  0.00    +0.149 HD
BRANCH  23  27
ATOM     27  CA  ILE A   1       8.247  -2.505 -14.064  0.00  0.00    +0.016 C 
BRANCH  27  28
ATOM     28  N   ILE A   1       9.438  -2.377 -13.142  0.00  0.00    +0.386 N 
ATOM     29  H   ILE A   1       9.417  -3.178 -12.499  0.00  0.00    -0.089 HD
ATOM     30  H   ILE A   1       9.442  -1.519 -12.591  0.00  0.00    -0.089 HD
ATOM     31  H   ILE A   1      10.301  -2.465 -13.696  0.00  0.00    -0.089 HD
ENDBRANCH  27  28
BRANCH  27  32
ATOM     32  CB  ILE A   1       8.703  -2.465 -15.540  0.00  0.00    -0.020 C 
ATOM     33  CG2 ILE A   1       7.501  -2.085 -16.422  0.00  0.00    +0.006 C 
BRANCH  32  34
ATOM     34  CG1 ILE A   1       9.863  -1.466 -15.768  0.00  0.00    -0.001 C 
ATOM     35  CD1 ILE A   1       9.394  -0.046 -16.062  0.00  0.00    +0.004 C 
ENDBRANCH  32  34
ENDBRANCH  27  32
ENDBRANCH  23  27
ENDBRANCH  22  25
BRANCH  22  36
ATOM     36  CB  ASP A   2       6.740  -5.431 -10.909  0.00  0.00    +0.189 C 
BRANCH  36  37
ATOM     37  CG  ASP A   2       7.417  -4.335 -10.088  0.00  0.00    +0.236 C 
ATOM     38  OD1 ASP A   2       6.777  -3.959  -9.053  0.00  0.00    -0.205 OA
ATOM     39  OD2 ASP A   2       8.576  -4.022 -10.461  0.00  0.00    -0.205 OA
ENDBRANCH  36  37
ENDBRANCH  22  36
ENDBRANCH   1  22
TORSDOF 16
ENDMDL
MODEL 8
REMARK VINA RESULT:      -6.8      5.048      7.903
REMARK  Name = IDTT_min.pdb
REMARK  20 active torsions:
REMARK  status: ('A' for Active; 'I' for Inactive)
REMARK    1  A    between atoms: N_1  and  CA_2
REMARK    2  A    between atoms: CA_2  and  C_3
REMARK    3  A    between atoms: CA_2  and  CB_5
REMARK    4  A    between atoms: CB_5  and  CG1_6
REMARK    5  A    between atoms: CB_5  and  CG2_7
REMARK    6  A    between atoms: CG1_6  and  CD1_8
REMARK    7  A    between atoms: N_9  and  CA_10
REMARK    8  A    between atoms: CA_10  and  C_11
REMARK    9  A    between atoms: CA_10  and  CB_13
REMARK   10  A    between atoms: CB_13  and  CG_14
REMARK   11  A    between atoms: N_17  and  CA_18
REMARK   12  A    between atoms: CA_18  and  C_19
REMARK   13  A    between atoms: CA_18  and  CB_21
REMARK   14  A    between atoms: CB_21  and  OG1_22
REMARK   15  A    between atoms: CB_21  and  CG2_23
REMARK   16  A    between atoms: N_24  and  CA_25
REMARK   17  A    between atoms: CA_25  and  C_26
REMARK   18  A    between atoms: CA_25  and  CB_29
REMARK   19  A    between atoms: CB_29  and  OG1_30
REMARK   20  A    between atoms: CB_29  and  CG2_31
REMARK                            x       y       z     vdW  Elec       q    Type
REMARK                         _______ _______ _______ _____ _____    ______ ____
ROOT
ATOM      1  C   ASP A   2       7.492  -4.687 -11.071  0.00  0.00    +0.235 C 
ATOM      2  O   ASP A   2       8.384  -5.289 -10.489  0.00  0.00    -0.274 OA
ATOM      3  N   THR A   3       7.685  -4.109 -12.317  0.00  0.00    -0.300 N 
ATOM      4  H   THR A   3       6.904  -4.214 -12.950  0.00  0.00    +0.150 HD
ENDROOT
BRANCH   3   5
ATOM      5  CA  THR A   3       9.024  -4.043 -12.921  0.00  0.00    +0.187 C 
BRANCH   5   6
ATOM      6  C   THR A   3       9.232  -2.754 -13.748  0.00  0.00    +0.237 C 
ATOM      7  O   THR A   3       9.560  -1.702 -13.202  0.00  0.00    -0.274 OA
ATOM      8  N   THR A   4       9.318  -2.966 -15.113  0.00  0.00    -0.294 N 
ATOM      9  H   THR A   4       8.546  -3.531 -15.471  0.00  0.00    +0.150 HD
BRANCH   8  10
ATOM     10  CA  THR A   4       9.644  -1.842 -16.017  0.00  0.00    +0.241 C 
BRANCH  10  11
ATOM     11  C   THR A   4       8.478  -0.854 -16.285  0.00  0.00    +0.257 C 
ATOM     12  O   THR A   4       8.809   0.341 -16.518  0.00  0.00    -0.203 OA
ATOM     13  OXT THR A   4       7.340  -1.413 -16.347  0.00  0.00    -0.203 OA
ENDBRANCH  10  11
BRANCH  10  14
ATOM     14  CB  THR A   4       9.964  -2.347 -17.441  0.00  0.00    +0.149 C 
ATOM     15  CG2 THR A   4       9.873  -3.864 -17.543  0.00  0.00    +0.041 C 
BRANCH  14  16
ATOM     16  OG1 THR A   4       9.033  -1.837 -18.414  0.00  0.00    -0.389 OA
ATOM     17  H   THR A   4       9.325  -0.895 -18.557  0.00  0.00    +0.210 HD
ENDBRANCH  14  16
ENDBRANCH  10  14
ENDBRANCH   8  10
ENDBRANCH   5   6
BRANCH   5  18
ATOM     18  CB  THR A   3       9.197  -5.243 -13.886  0.00  0.00    +0.141 C 
ATOM     19  CG2 THR A   3       9.929  -6.443 -13.288  0.00  0.00    +0.040 C 
BRANCH  18  20
ATOM     20  OG1 THR A   3       7.903  -5.683 -14.343  0.00  0.00    -0.390 OA
ATOM     21  H   THR A   3       7.738  -5.233 -15.193  0.00  0.00    +0.210 HD
ENDBRANCH  18  20
ENDBRANCH   5  18
ENDBRANCH   3   5
BRANCH   1  22
ATOM     22  CA  ASP A   2       6.026  -4.647 -10.569  0.00  0.00    +0.175 C 
BRANCH  22  25
ATOM     23  C   ILE A   1       3.848  -4.365 -11.668  0.00  0.00    +0.199 C 
ATOM     24  O   ILE A   1       3.596  -3.405 -10.969  0.00  0.00    -0.278 OA
ATOM     25  N   ASP A   2       5.072  -5.007 -11.647  0.00  0.00    -0.304 N 
ATOM     26  H   ASP A   2       4.965  -6.037 -11.606  0.00  0.00    +0.149 HD
BRANCH  23  27
ATOM     27  CA  ILE A   1       2.878  -4.897 -12.742  0.00  0.00    +0.016 C 
BRANCH  27  28
ATOM     28  N   ILE A   1       3.649  -5.862 -13.613  0.00  0.00    +0.386 N 
ATOM     29  H   ILE A   1       3.297  -5.760 -14.573  0.00  0.00    -0.089 HD
ATOM     30  H   ILE A   1       3.552  -6.838 -13.334  0.00  0.00    -0.089 HD
ATOM     31  H   ILE A   1       4.639  -5.580 -13.630  0.00  0.00    -0.089 HD
ENDBRANCH  27  28
BRANCH  27  32
ATOM     32  CB  ILE A   1       1.626  -5.585 -12.155  0.00  0.00    -0.020 C 
ATOM     33  CG2 ILE A   1       0.835  -6.242 -13.299  0.00  0.00    +0.006 C 
BRANCH  32  34
ATOM     34  CG1 ILE A   1       1.987  -6.645 -11.085  0.00  0.00    -0.001 C 
ATOM     35  CD1 ILE A   1       1.639  -6.217  -9.664  0.00  0.00    +0.004 C 
ENDBRANCH  32  34
ENDBRANCH  27  32
ENDBRANCH  23  27
ENDBRANCH  22  25
BRANCH  22  36
ATOM     36  CB  ASP A   2       5.869  -5.606  -9.398  0.00  0.00    +0.189 C 
BRANCH  36  37
ATOM     37  CG  ASP A   2       5.635  -4.888  -8.070  0.00  0.00    +0.236 C 
ATOM     38  OD1 ASP A   2       6.686  -4.651  -7.390  0.00  0.00    -0.205 OA
ATOM     39  OD2 ASP A   2       4.455  -4.509  -7.863  0.00  0.00    -0.205 OA
ENDBRANCH  36  37
ENDBRANCH  22  36
ENDBRANCH   1  22
TORSDOF 16
ENDMDL
MODEL 9
REMARK VINA RESULT:      -6.8      1.606      2.406
REMARK  Name = IDTT_min.pdb
REMARK  20 active torsions:
REMARK  status: ('A' for Active; 'I' for Inactive)
REMARK    1  A    between atoms: N_1  and  CA_2
REMARK    2  A    between atoms: CA_2  and  C_3
REMARK    3  A    between atoms: CA_2  and  CB_5
REMARK    4  A    between atoms: CB_5  and  CG1_6
REMARK    5  A    between atoms: CB_5  and  CG2_7
REMARK    6  A    between atoms: CG1_6  and  CD1_8
REMARK    7  A    between atoms: N_9  and  CA_10
REMARK    8  A    between atoms: CA_10  and  C_11
REMARK    9  A    between atoms: CA_10  and  CB_13
REMARK   10  A    between atoms: CB_13  and  CG_14
REMARK   11  A    between atoms: N_17  and  CA_18
REMARK   12  A    between atoms: CA_18  and  C_19
REMARK   13  A    between atoms: CA_18  and  CB_21
REMARK   14  A    between atoms: CB_21  and  OG1_22
REMARK   15  A    between atoms: CB_21  and  CG2_23
REMARK   16  A    between atoms: N_24  and  CA_25
REMARK   17  A    between atoms: CA_25  and  C_26
REMARK   18  A    between atoms: CA_25  and  CB_29
REMARK   19  A    between atoms: CB_29  and  OG1_30
REMARK   20  A    between atoms: CB_29  and  CG2_31
REMARK                            x       y       z     vdW  Elec       q    Type
REMARK                         _______ _______ _______ _____ _____    ______ ____
ROOT
ATOM      1  C   ASP A   2       2.473  -6.171 -10.074  0.00  0.00    +0.235 C 
ATOM      2  O   ASP A   2       1.347  -6.212 -10.553  0.00  0.00    -0.274 OA
ATOM      3  N   THR A   3       3.581  -5.816 -10.829  0.00  0.00    -0.300 N 
ATOM      4  H   THR A   3       4.243  -5.226 -10.344  0.00  0.00    +0.150 HD
ENDROOT
BRANCH   3   5
ATOM      5  CA  THR A   3       3.481  -5.642 -12.286  0.00  0.00    +0.187 C 
BRANCH   5   6
ATOM      6  C   THR A   3       3.349  -6.989 -13.030  0.00  0.00    +0.237 C 
ATOM      7  O   THR A   3       4.225  -7.847 -12.939  0.00  0.00    -0.274 OA
ATOM      8  N   THR A   4       2.079  -7.243 -13.518  0.00  0.00    -0.294 N 
ATOM      9  H   THR A   4       1.706  -6.466 -14.065  0.00  0.00    +0.150 HD
BRANCH   8  10
ATOM     10  CA  THR A   4       1.773  -8.550 -14.139  0.00  0.00    +0.241 C 
BRANCH  10  11
ATOM     11  C   THR A   4       1.201  -8.476 -15.580  0.00  0.00    +0.257 C 
ATOM     12  O   THR A   4       0.604  -9.508 -15.991  0.00  0.00    -0.203 OA
ATOM     13  OXT THR A   4       1.314  -7.330 -16.115  0.00  0.00    -0.203 OA
ENDBRANCH  10  11
BRANCH  10  14
ATOM     14  CB  THR A   4       0.635  -9.273 -13.385  0.00  0.00    +0.149 C 
ATOM     15  CG2 THR A   4       0.887  -9.323 -11.883  0.00  0.00    +0.041 C 
BRANCH  14  16
ATOM     16  OG1 THR A   4      -0.628  -8.599 -13.542  0.00  0.00    -0.389 OA
ATOM     17  H   THR A   4      -0.401  -7.634 -13.441  0.00  0.00    +0.210 HD
ENDBRANCH  14  16
ENDBRANCH  10  14
ENDBRANCH   8  10
ENDBRANCH   5   6
BRANCH   5  18
ATOM     18  CB  THR A   3       4.772  -4.956 -12.798  0.00  0.00    +0.141 C 
ATOM     19  CG2 THR A   3       4.955  -4.990 -14.314  0.00  0.00    +0.040 C 
BRANCH  18  20
ATOM     20  OG1 THR A   3       4.788  -3.580 -12.371  0.00  0.00    -0.390 OA
ATOM     21  H   THR A   3       4.313  -3.546 -11.518  0.00  0.00    +0.210 HD
ENDBRANCH  18  20
ENDBRANCH   5  18
ENDBRANCH   3   5
BRANCH   1  22
ATOM     22  CA  ASP A   2       2.759  -6.342  -8.560  0.00  0.00    +0.175 C 
BRANCH  22  25
ATOM     23  C   ILE A   1       1.701  -4.415  -7.466  0.00  0.00    +0.199 C 
ATOM     24  O   ILE A   1       2.466  -3.653  -8.021  0.00  0.00    -0.278 OA
ATOM     25  N   ASP A   2       1.668  -5.771  -7.733  0.00  0.00    -0.304 N 
ATOM     26  H   ASP A   2       1.640  -6.333  -6.863  0.00  0.00    +0.149 HD
BRANCH  23  27
ATOM     27  CA  ILE A   1       0.603  -3.939  -6.494  0.00  0.00    +0.016 C 
BRANCH  27  28
ATOM     28  N   ILE A   1       0.665  -2.429  -6.444  0.00  0.00    +0.386 N 
ATOM     29  H   ILE A   1       1.646  -2.157  -6.581  0.00  0.00    -0.089 HD
ATOM     30  H   ILE A   1       0.338  -2.032  -5.564  0.00  0.00    -0.089 HD
ATOM     31  H   ILE A   1       0.138  -2.046  -7.240  0.00  0.00    -0.089 HD
ENDBRANCH  27  28
BRANCH  27  32
ATOM     32  CB  ILE A   1      -0.815  -4.406  -6.891  0.00  0.00    -0.020 C 
ATOM     33  CG2 ILE A   1      -1.418  -5.212  -5.728  0.00  0.00    +0.006 C 
BRANCH  32  34
ATOM     34  CG1 ILE A   1      -1.744  -3.221  -7.250  0.00  0.00    -0.001 C 
ATOM     35  CD1 ILE A   1      -3.210  -3.473  -6.914  0.00  0.00    +0.004 C 
ENDBRANCH  32  34
ENDBRANCH  27  32
ENDBRANCH  23  27
ENDBRANCH  22  25
BRANCH  22  36
ATOM     36  CB  ASP A   2       2.928  -7.821  -8.245  0.00  0.00    +0.189 C 
BRANCH  36  37
ATOM     37  CG  ASP A   2       3.721  -8.067  -6.962  0.00  0.00    +0.236 C 
ATOM     38  OD1 ASP A   2       4.096  -7.017  -6.347  0.00  0.00    -0.205 OA
ATOM     39  OD2 ASP A   2       3.803  -9.269  -6.602  0.00  0.00    -0.205 OA
ENDBRANCH  36  37
ENDBRANCH  22  36
ENDBRANCH   1  22
TORSDOF 16
ENDMDL
MODEL 10
REMARK VINA RESULT:      -6.8      1.494      2.318
REMARK  Name = IDTT_min.pdb
REMARK  20 active torsions:
REMARK  status: ('A' for Active; 'I' for Inactive)
REMARK    1  A    between atoms: N_1  and  CA_2
REMARK    2  A    between atoms: CA_2  and  C_3
REMARK    3  A    between atoms: CA_2  and  CB_5
REMARK    4  A    between atoms: CB_5  and  CG1_6
REMARK    5  A    between atoms: CB_5  and  CG2_7
REMARK    6  A    between atoms: CG1_6  and  CD1_8
REMARK    7  A    between atoms: N_9  and  CA_10
REMARK    8  A    between atoms: CA_10  and  C_11
REMARK    9  A    between atoms: CA_10  and  CB_13
REMARK   10  A    between atoms: CB_13  and  CG_14
REMARK   11  A    between atoms: N_17  and  CA_18
REMARK   12  A    between atoms: CA_18  and  C_19
REMARK   13  A    between atoms: CA_18  and  CB_21
REMARK   14  A    between atoms: CB_21  and  OG1_22
REMARK   15  A    between atoms: CB_21  and  CG2_23
REMARK   16  A    between atoms: N_24  and  CA_25
REMARK   17  A    between atoms: CA_25  and  C_26
REMARK   18  A    between atoms: CA_25  and  CB_29
REMARK   19  A    between atoms: CB_29  and  OG1_30
REMARK   20  A    between atoms: CB_29  and  CG2_31
REMARK                            x       y       z     vdW  Elec       q    Type
REMARK                         _______ _______ _______ _____ _____    ______ ____
ROOT
ATOM      1  C   ASP A   2       3.803  -4.814  -9.316  0.00  0.00    +0.235 C 
ATOM      2  O   ASP A   2       3.515  -3.633  -9.468  0.00  0.00    -0.274 OA
ATOM      3  N   THR A   3       4.348  -5.576 -10.339  0.00  0.00    -0.300 N 
ATOM      4  H   THR A   3       5.078  -6.209 -10.043  0.00  0.00    +0.150 HD
ENDROOT
BRANCH   3   5
ATOM      5  CA  THR A   3       4.444  -5.048 -11.708  0.00  0.00    +0.187 C 
BRANCH   5   6
ATOM      6  C   THR A   3       3.688  -5.925 -12.730  0.00  0.00    +0.237 C 
ATOM      7  O   THR A   3       4.067  -6.003 -13.897  0.00  0.00    -0.274 OA
ATOM      8  N   THR A   4       2.787  -6.808 -12.159  0.00  0.00    -0.294 N 
ATOM      9  H   THR A   4       2.153  -6.352 -11.502  0.00  0.00    +0.150 HD
BRANCH   8  10
ATOM     10  CA  THR A   4       2.087  -7.799 -13.004  0.00  0.00    +0.241 C 
BRANCH  10  11
ATOM     11  C   THR A   4       0.939  -7.225 -13.876  0.00  0.00    +0.257 C 
ATOM     12  O   THR A   4       0.688  -7.851 -14.942  0.00  0.00    -0.203 OA
ATOM     13  OXT THR A   4       0.323  -6.257 -13.335  0.00  0.00    -0.203 OA
ENDBRANCH  10  11
BRANCH  10  14
ATOM     14  CB  THR A   4       1.338  -8.839 -12.141  0.00  0.00    +0.149 C 
ATOM     15  CG2 THR A   4       1.395  -8.496 -10.658  0.00  0.00    +0.041 C 
BRANCH  14  16
ATOM     16  OG1 THR A   4      -0.063  -8.903 -12.469  0.00  0.00    -0.389 OA
ATOM     17  H   THR A   4      -0.358  -7.950 -12.455  0.00  0.00    +0.210 HD
ENDBRANCH  14  16
ENDBRANCH  10  14
ENDBRANCH   8  10
ENDBRANCH   5   6
BRANCH   5  18
ATOM     18  CB  THR A   3       5.934  -5.026 -12.132  0.00  0.00    +0.141 C 
ATOM     19  CG2 THR A   3       6.852  -4.239 -11.198  0.00  0.00    +0.040 C 
BRANCH  18  20
ATOM     20  OG1 THR A   3       6.429  -6.377 -12.219  0.00  0.00    -0.390 OA
ATOM     21  H   THR A   3       6.300  -6.779 -11.339  0.00  0.00    +0.210 HD
ENDBRANCH  18  20
ENDBRANCH   5  18
ENDBRANCH   3   5
BRANCH   1  22
ATOM     22  CA  ASP A   2       3.750  -5.532  -7.943  0.00  0.00    +0.175 C 
BRANCH  22  25
ATOM     23  C   ILE A   1       1.413  -5.000  -7.409  0.00  0.00    +0.199 C 
ATOM     24  O   ILE A   1       1.024  -5.706  -8.317  0.00  0.00    -0.278 OA
ATOM     25  N   ASP A   2       2.744  -4.914  -7.046  0.00  0.00    -0.304 N 
ATOM     26  H   ASP A   2       3.041  -3.931  -6.910  0.00  0.00    +0.149 HD
BRANCH  23  27
ATOM     27  CA  ILE A   1       0.457  -4.219  -6.486  0.00  0.00    +0.016 C 
BRANCH  27  28
ATOM     28  N   ILE A   1       0.792  -2.751  -6.622  0.00  0.00    +0.386 N 
ATOM     29  H   ILE A   1       1.721  -2.608  -6.207  0.00  0.00    -0.089 HD
ATOM     30  H   ILE A   1       0.130  -2.132  -6.157  0.00  0.00    -0.089 HD
ATOM     31  H   ILE A   1       0.877  -2.519  -7.621  0.00  0.00    -0.089 HD
ENDBRANCH  27  28
BRANCH  27  32
ATOM     32  CB  ILE A   1      -1.037  -4.461  -6.799  0.00  0.00    -0.020 C 
ATOM     33  CG2 ILE A   1      -1.675  -5.224  -5.626  0.00  0.00    +0.006 C 
BRANCH  32  34
ATOM     34  CG1 ILE A   1      -1.804  -3.141  -7.052  0.00  0.00    -0.001 C 
ATOM     35  CD1 ILE A   1      -3.320  -3.297  -6.994  0.00  0.00    +0.004 C 
ENDBRANCH  32  34
ENDBRANCH  27  32
ENDBRANCH  23  27
ENDBRANCH  22  25
BRANCH  22  36
ATOM     36  CB  ASP A   2       3.420  -7.002  -8.157  0.00  0.00    +0.189 C 
BRANCH  36  37
ATOM     37  CG  ASP A   2       3.793  -7.874  -6.960  0.00  0.00    +0.236 C 
ATOM     38  OD1 ASP A   2       3.594  -9.123  -7.116  0.00  0.00    -0.205 OA
ATOM     39  OD2 ASP A   2       4.364  -7.274  -6.014  0.00  0.00    -0.205 OA
ENDBRANCH  36  37
ENDBRANCH  22  36
ENDBRANCH   1  22
TORSDOF 16
ENDMDL
MODEL 11
REMARK VINA RESULT:      -6.7      1.801      4.264
REMARK  Name = IDTT_min.pdb
REMARK  20 active torsions:
REMARK  status: ('A' for Active; 'I' for Inactive)
REMARK    1  A    between atoms: N_1  and  CA_2
REMARK    2  A    between atoms: CA_2  and  C_3
REMARK    3  A    between atoms: CA_2  and  CB_5
REMARK    4  A    between atoms: CB_5  and  CG1_6
REMARK    5  A    between atoms: CB_5  and  CG2_7
REMARK    6  A    between atoms: CG1_6  and  CD1_8
REMARK    7  A    between atoms: N_9  and  CA_10
REMARK    8  A    between atoms: CA_10  and  C_11
REMARK    9  A    between atoms: CA_10  and  CB_13
REMARK   10  A    between atoms: CB_13  and  CG_14
REMARK   11  A    between atoms: N_17  and  CA_18
REMARK   12  A    between atoms: CA_18  and  C_19
REMARK   13  A    between atoms: CA_18  and  CB_21
REMARK   14  A    between atoms: CB_21  and  OG1_22
REMARK   15  A    between atoms: CB_21  and  CG2_23
REMARK   16  A    between atoms: N_24  and  CA_25
REMARK   17  A    between atoms: CA_25  and  C_26
REMARK   18  A    between atoms: CA_25  and  CB_29
REMARK   19  A    between atoms: CB_29  and  OG1_30
REMARK   20  A    between atoms: CB_29  and  CG2_31
REMARK                            x       y       z     vdW  Elec       q    Type
REMARK                         _______ _______ _______ _____ _____    ______ ____
ROOT
ATOM      1  C   ASP A   2       2.707  -4.146 -10.260  0.00  0.00    +0.235 C 
ATOM      2  O   ASP A   2       2.997  -3.057 -10.739  0.00  0.00    -0.274 OA
ATOM      3  N   THR A   3       2.536  -5.275 -11.047  0.00  0.00    -0.300 N 
ATOM      4  H   THR A   3       2.918  -6.122 -10.649  0.00  0.00    +0.150 HD
ENDROOT
BRANCH   3   5
ATOM      5  CA  THR A   3       2.524  -5.180 -12.515  0.00  0.00    +0.187 C 
BRANCH   5   6
ATOM      6  C   THR A   3       1.466  -6.105 -13.154  0.00  0.00    +0.237 C 
ATOM      7  O   THR A   3       0.890  -5.782 -14.192  0.00  0.00    -0.274 OA
ATOM      8  N   THR A   4       1.464  -7.394 -12.650  0.00  0.00    -0.294 N 
ATOM      9  H   THR A   4       1.426  -7.416 -11.629  0.00  0.00    +0.150 HD
BRANCH   8  10
ATOM     10  CA  THR A   4       0.594  -8.425 -13.256  0.00  0.00    +0.241 C 
BRANCH  10  11
ATOM     11  C   THR A   4       0.067  -9.503 -12.271  0.00  0.00    +0.257 C 
ATOM     12  O   THR A   4       0.604  -9.518 -11.130  0.00  0.00    -0.203 OA
ATOM     13  OXT THR A   4      -0.926 -10.156 -12.714  0.00  0.00    -0.203 OA
ENDBRANCH  10  11
BRANCH  10  14
ATOM     14  CB  THR A   4       1.373  -9.283 -14.277  0.00  0.00    +0.149 C 
ATOM     15  CG2 THR A   4       1.003  -8.938 -15.713  0.00  0.00    +0.041 C 
BRANCH  14  16
ATOM     16  OG1 THR A   4       2.795  -9.073 -14.182  0.00  0.00    -0.389 OA
ATOM     17  H   THR A   4       3.186  -9.823 -14.709  0.00  0.00    +0.210 HD
ENDBRANCH  14  16
ENDBRANCH  10  14
ENDBRANCH   8  10
ENDBRANCH   5   6
BRANCH   5  18
ATOM     18  CB  THR A   3       3.909  -5.618 -13.056  0.00  0.00    +0.141 C 
ATOM     19  CG2 THR A   3       4.735  -6.462 -12.086  0.00  0.00    +0.040 C 
BRANCH  18  20
ATOM     20  OG1 THR A   3       3.733  -6.370 -14.273  0.00  0.00    -0.390 OA
ATOM     21  H   THR A   3       3.502  -7.281 -14.008  0.00  0.00    +0.210 HD
ENDBRANCH  18  20
ENDBRANCH   5  18
ENDBRANCH   3   5
BRANCH   1  22
ATOM     22  CA  ASP A   2       2.665  -4.419  -8.734  0.00  0.00    +0.175 C 
BRANCH  22  25
ATOM     23  C   ILE A   1       4.393  -6.047  -8.109  0.00  0.00    +0.199 C 
ATOM     24  O   ILE A   1       3.755  -6.949  -8.613  0.00  0.00    -0.278 OA
ATOM     25  N   ASP A   2       4.015  -4.721  -8.199  0.00  0.00    -0.304 N 
ATOM     26  H   ASP A   2       4.076  -4.242  -7.282  0.00  0.00    +0.149 HD
BRANCH  23  27
ATOM     27  CA  ILE A   1       5.756  -6.268  -7.422  0.00  0.00    +0.016 C 
BRANCH  27  28
ATOM     28  N   ILE A   1       6.542  -4.983  -7.550  0.00  0.00    +0.386 N 
ATOM     29  H   ILE A   1       7.307  -5.156  -8.214  0.00  0.00    -0.089 HD
ATOM     30  H   ILE A   1       6.942  -4.655  -6.673  0.00  0.00    -0.089 HD
ATOM     31  H   ILE A   1       5.940  -4.264  -7.974  0.00  0.00    -0.089 HD
ENDBRANCH  27  28
BRANCH  27  32
ATOM     32  CB  ILE A   1       5.637  -6.680  -5.937  0.00  0.00    -0.020 C 
ATOM     33  CG2 ILE A   1       5.243  -8.164  -5.862  0.00  0.00    +0.006 C 
BRANCH  32  34
ATOM     34  CG1 ILE A   1       6.952  -6.442  -5.156  0.00  0.00    -0.001 C 
ATOM     35  CD1 ILE A   1       7.911  -7.626  -5.203  0.00  0.00    +0.004 C 
ENDBRANCH  32  34
ENDBRANCH  27  32
ENDBRANCH  23  27
ENDBRANCH  22  25
BRANCH  22  36
ATOM     36  CB  ASP A   2       2.085  -3.206  -8.022  0.00  0.00    +0.189 C 
BRANCH  36  37
ATOM     37  CG  ASP A   2       0.858  -3.543  -7.178  0.00  0.00    +0.236 C 
ATOM     38  OD1 ASP A   2       0.417  -4.731  -7.312  0.00  0.00    -0.205 OA
ATOM     39  OD2 ASP A   2       0.504  -2.654  -6.362  0.00  0.00    -0.205 OA
ENDBRANCH  36  37
ENDBRANCH  22  36
ENDBRANCH   1  22
TORSDOF 16
ENDMDL
MODEL 12
REMARK VINA RESULT:      -6.7      2.936      6.020
REMARK  Name = IDTT_min.pdb
REMARK  20 active torsions:
REMARK  status: ('A' for Active; 'I' for Inactive)
REMARK    1  A    between atoms: N_1  and  CA_2
REMARK    2  A    between atoms: CA_2  and  C_3
REMARK    3  A    between atoms: CA_2  and  CB_5
REMARK    4  A    between atoms: CB_5  and  CG1_6
REMARK    5  A    between atoms: CB_5  and  CG2_7
REMARK    6  A    between atoms: CG1_6  and  CD1_8
REMARK    7  A    between atoms: N_9  and  CA_10
REMARK    8  A    between atoms: CA_10  and  C_11
REMARK    9  A    between atoms: CA_10  and  CB_13
REMARK   10  A    between atoms: CB_13  and  CG_14
REMARK   11  A    between atoms: N_17  and  CA_18
REMARK   12  A    between atoms: CA_18  and  C_19
REMARK   13  A    between atoms: CA_18  and  CB_21
REMARK   14  A    between atoms: CB_21  and  OG1_22
REMARK   15  A    between atoms: CB_21  and  CG2_23
REMARK   16  A    between atoms: N_24  and  CA_25
REMARK   17  A    between atoms: CA_25  and  C_26
REMARK   18  A    between atoms: CA_25  and  CB_29
REMARK   19  A    between atoms: CB_29  and  OG1_30
REMARK   20  A    between atoms: CB_29  and  CG2_31
REMARK                            x       y       z     vdW  Elec       q    Type
REMARK                         _______ _______ _______ _____ _____    ______ ____
ROOT
ATOM      1  C   ASP A   2       4.262  -5.078  -9.195  0.00  0.00    +0.235 C 
ATOM      2  O   ASP A   2       4.955  -4.136  -8.835  0.00  0.00    -0.274 OA
ATOM      3  N   THR A   3       4.745  -6.378  -9.226  0.00  0.00    -0.300 N 
ATOM      4  H   THR A   3       4.084  -7.075  -8.912  0.00  0.00    +0.150 HD
ENDROOT
BRANCH   3   5
ATOM      5  CA  THR A   3       6.169  -6.662  -8.993  0.00  0.00    +0.187 C 
BRANCH   5   6
ATOM      6  C   THR A   3       7.039  -6.352 -10.232  0.00  0.00    +0.237 C 
ATOM      7  O   THR A   3       7.043  -7.105 -11.204  0.00  0.00    -0.274 OA
ATOM      8  N   THR A   4       7.534  -5.059 -10.265  0.00  0.00    -0.294 N 
ATOM      9  H   THR A   4       7.997  -4.795  -9.395  0.00  0.00    +0.150 HD
BRANCH   8  10
ATOM     10  CA  THR A   4       8.275  -4.582 -11.452  0.00  0.00    +0.241 C 
BRANCH  10  11
ATOM     11  C   THR A   4       9.423  -3.582 -11.152  0.00  0.00    +0.257 C 
ATOM     12  O   THR A   4       9.604  -2.675 -12.010  0.00  0.00    -0.203 OA
ATOM     13  OXT THR A   4       9.957  -3.746 -10.012  0.00  0.00    -0.203 OA
ENDBRANCH  10  11
BRANCH  10  14
ATOM     14  CB  THR A   4       7.364  -3.747 -12.380  0.00  0.00    +0.149 C 
ATOM     15  CG2 THR A   4       7.152  -4.422 -13.729  0.00  0.00    +0.041 C 
BRANCH  14  16
ATOM     16  OG1 THR A   4       6.046  -3.572 -11.824  0.00  0.00    -0.389 OA
ATOM     17  H   THR A   4       5.446  -3.577 -12.620  0.00  0.00    +0.210 HD
ENDBRANCH  14  16
ENDBRANCH  10  14
ENDBRANCH   8  10
ENDBRANCH   5   6
BRANCH   5  18
ATOM     18  CB  THR A   3       6.333  -8.171  -8.680  0.00  0.00    +0.141 C 
ATOM     19  CG2 THR A   3       6.086  -8.550  -7.221  0.00  0.00    +0.040 C 
BRANCH  18  20
ATOM     20  OG1 THR A   3       5.431  -8.934  -9.505  0.00  0.00    -0.390 OA
ATOM     21  H   THR A   3       4.645  -9.125  -8.958  0.00  0.00    +0.210 HD
ENDBRANCH  18  20
ENDBRANCH   5  18
ENDBRANCH   3   5
BRANCH   1  22
ATOM     22  CA  ASP A   2       2.745  -4.953  -9.490  0.00  0.00    +0.175 C 
BRANCH  22  25
ATOM     23  C   ILE A   1       1.089  -5.023  -7.679  0.00  0.00    +0.199 C 
ATOM     24  O   ILE A   1       0.962  -6.223  -7.813  0.00  0.00    -0.278 OA
ATOM     25  N   ASP A   2       2.028  -4.286  -8.376  0.00  0.00    -0.304 N 
ATOM     26  H   ASP A   2       1.619  -3.420  -8.772  0.00  0.00    +0.149 HD
BRANCH  23  27
ATOM     27  CA  ILE A   1       0.306  -4.210  -6.629  0.00  0.00    +0.016 C 
BRANCH  27  28
ATOM     28  N   ILE A   1       0.803  -2.784  -6.695  0.00  0.00    +0.386 N 
ATOM     29  H   ILE A   1       1.454  -2.722  -7.488  0.00  0.00    -0.089 HD
ATOM     30  H   ILE A   1       1.286  -2.476  -5.853  0.00  0.00    -0.089 HD
ATOM     31  H   ILE A   1       0.011  -2.163  -6.915  0.00  0.00    -0.089 HD
ENDBRANCH  27  28
BRANCH  27  32
ATOM     32  CB  ILE A   1      -1.225  -4.256  -6.831  0.00  0.00    -0.020 C 
ATOM     33  CG2 ILE A   1      -1.851  -5.103  -5.709  0.00  0.00    +0.006 C 
BRANCH  32  34
ATOM     34  CG1 ILE A   1      -1.858  -2.843  -6.842  0.00  0.00    -0.001 C 
ATOM     35  CD1 ILE A   1      -3.380  -2.857  -6.750  0.00  0.00    +0.004 C 
ENDBRANCH  32  34
ENDBRANCH  27  32
ENDBRANCH  23  27
ENDBRANCH  22  25
BRANCH  22  36
ATOM     36  CB  ASP A   2       2.546  -4.167 -10.778  0.00  0.00    +0.189 C 
BRANCH  36  37
ATOM     37  CG  ASP A   2       2.656  -5.039 -12.028  0.00  0.00    +0.236 C 
ATOM     38  OD1 ASP A   2       1.579  -5.162 -12.699  0.00  0.00    -0.205 OA
ATOM     39  OD2 ASP A   2       3.817  -5.427 -12.314  0.00  0.00    -0.205 OA
ENDBRANCH  36  37
ENDBRANCH  22  36
ENDBRANCH   1  22
TORSDOF 16
ENDMDL
MODEL 13
REMARK VINA RESULT:      -6.7      2.468      4.820
REMARK  Name = IDTT_min.pdb
REMARK  20 active torsions:
REMARK  status: ('A' for Active; 'I' for Inactive)
REMARK    1  A    between atoms: N_1  and  CA_2
REMARK    2  A    between atoms: CA_2  and  C_3
REMARK    3  A    between atoms: CA_2  and  CB_5
REMARK    4  A    between atoms: CB_5  and  CG1_6
REMARK    5  A    between atoms: CB_5  and  CG2_7
REMARK    6  A    between atoms: CG1_6  and  CD1_8
REMARK    7  A    between atoms: N_9  and  CA_10
REMARK    8  A    between atoms: CA_10  and  C_11
REMARK    9  A    between atoms: CA_10  and  CB_13
REMARK   10  A    between atoms: CB_13  and  CG_14
REMARK   11  A    between atoms: N_17  and  CA_18
REMARK   12  A    between atoms: CA_18  and  C_19
REMARK   13  A    between atoms: CA_18  and  CB_21
REMARK   14  A    between atoms: CB_21  and  OG1_22
REMARK   15  A    between atoms: CB_21  and  CG2_23
REMARK   16  A    between atoms: N_24  and  CA_25
REMARK   17  A    between atoms: CA_25  and  C_26
REMARK   18  A    between atoms: CA_25  and  CB_29
REMARK   19  A    between atoms: CB_29  and  OG1_30
REMARK   20  A    between atoms: CB_29  and  CG2_31
REMARK                            x       y       z     vdW  Elec       q    Type
REMARK                         _______ _______ _______ _____ _____    ______ ____
ROOT
ATOM      1  C   ASP A   2       3.504  -6.227  -9.086  0.00  0.00    +0.235 C 
ATOM      2  O   ASP A   2       2.841  -7.254  -9.160  0.00  0.00    -0.274 OA
ATOM      3  N   THR A   3       3.877  -5.509 -10.212  0.00  0.00    -0.300 N 
ATOM      4  H   THR A   3       3.823  -4.506 -10.103  0.00  0.00    +0.150 HD
ENDROOT
BRANCH   3   5
ATOM      5  CA  THR A   3       3.641  -6.043 -11.563  0.00  0.00    +0.187 C 
BRANCH   5   6
ATOM      6  C   THR A   3       4.907  -5.985 -12.446  0.00  0.00    +0.237 C 
ATOM      7  O   THR A   3       4.870  -6.337 -13.624  0.00  0.00    -0.274 OA
ATOM      8  N   THR A   4       5.942  -5.245 -11.902  0.00  0.00    -0.294 N 
ATOM      9  H   THR A   4       6.157  -5.517 -10.941  0.00  0.00    +0.150 HD
BRANCH   8  10
ATOM     10  CA  THR A   4       7.168  -4.995 -12.691  0.00  0.00    +0.241 C 
BRANCH  10  11
ATOM     11  C   THR A   4       8.474  -4.885 -11.860  0.00  0.00    +0.257 C 
ATOM     12  O   THR A   4       9.420  -4.248 -12.400  0.00  0.00    -0.203 OA
ATOM     13  OXT THR A   4       8.373  -5.357 -10.687  0.00  0.00    -0.203 OA
ENDBRANCH  10  11
BRANCH  10  14
ATOM     14  CB  THR A   4       7.115  -3.615 -13.382  0.00  0.00    +0.149 C 
ATOM     15  CG2 THR A   4       6.958  -3.738 -14.892  0.00  0.00    +0.041 C 
BRANCH  14  16
ATOM     16  OG1 THR A   4       5.988  -2.834 -12.939  0.00  0.00    -0.389 OA
ATOM     17  H   THR A   4       5.302  -3.516 -12.699  0.00  0.00    +0.210 HD
ENDBRANCH  14  16
ENDBRANCH  10  14
ENDBRANCH   8  10
ENDBRANCH   5   6
BRANCH   5  18
ATOM     18  CB  THR A   3       2.555  -5.183 -12.257  0.00  0.00    +0.141 C 
ATOM     19  CG2 THR A   3       1.303  -5.952 -12.675  0.00  0.00    +0.040 C 
BRANCH  18  20
ATOM     20  OG1 THR A   3       2.156  -4.112 -11.379  0.00  0.00    -0.390 OA
ATOM     21  H   THR A   3       1.246  -3.866 -11.635  0.00  0.00    +0.210 HD
ENDBRANCH  18  20
ENDBRANCH   5  18
ENDBRANCH   3   5
BRANCH   1  22
ATOM     22  CA  ASP A   2       3.852  -5.535  -7.743  0.00  0.00    +0.175 C 
BRANCH  22  25
ATOM     23  C   ILE A   1       1.849  -4.148  -7.440  0.00  0.00    +0.199 C 
ATOM     24  O   ILE A   1       2.015  -3.634  -8.527  0.00  0.00    -0.278 OA
ATOM     25  N   ASP A   2       2.630  -5.190  -6.977  0.00  0.00    -0.304 N 
ATOM     26  H   ASP A   2       2.935  -5.036  -5.999  0.00  0.00    +0.149 HD
BRANCH  23  27
ATOM     27  CA  ILE A   1       0.676  -3.779  -6.510  0.00  0.00    +0.016 C 
BRANCH  27  28
ATOM     28  N   ILE A   1       0.623  -2.271  -6.421  0.00  0.00    +0.386 N 
ATOM     29  H   ILE A   1      -0.021  -2.031  -5.657  0.00  0.00    -0.089 HD
ATOM     30  H   ILE A   1       0.297  -1.819  -7.274  0.00  0.00    -0.089 HD
ATOM     31  H   ILE A   1       1.550  -1.920  -6.147  0.00  0.00    -0.089 HD
ENDBRANCH  27  28
BRANCH  27  32
ATOM     32  CB  ILE A   1      -0.685  -4.339  -6.983  0.00  0.00    -0.020 C 
ATOM     33  CG2 ILE A   1      -1.258  -5.250  -5.885  0.00  0.00    +0.006 C 
BRANCH  32  34
ATOM     34  CG1 ILE A   1      -1.695  -3.216  -7.319  0.00  0.00    -0.001 C 
ATOM     35  CD1 ILE A   1      -3.123  -3.532  -6.887  0.00  0.00    +0.004 C 
ENDBRANCH  32  34
ENDBRANCH  27  32
ENDBRANCH  23  27
ENDBRANCH  22  25
BRANCH  22  36
ATOM     36  CB  ASP A   2       4.738  -6.457  -6.917  0.00  0.00    +0.189 C 
BRANCH  36  37
ATOM     37  CG  ASP A   2       6.223  -6.297  -7.238  0.00  0.00    +0.236 C 
ATOM     38  OD1 ASP A   2       6.804  -5.330  -6.648  0.00  0.00    -0.205 OA
ATOM     39  OD2 ASP A   2       6.721  -7.209  -7.947  0.00  0.00    -0.205 OA
ENDBRANCH  36  37
ENDBRANCH  22  36
ENDBRANCH   1  22
TORSDOF 16
ENDMDL
MODEL 14
REMARK VINA RESULT:      -6.6      3.899      8.144
REMARK  Name = IDTT_min.pdb
REMARK  20 active torsions:
REMARK  status: ('A' for Active; 'I' for Inactive)
REMARK    1  A    between atoms: N_1  and  CA_2
REMARK    2  A    between atoms: CA_2  and  C_3
REMARK    3  A    between atoms: CA_2  and  CB_5
REMARK    4  A    between atoms: CB_5  and  CG1_6
REMARK    5  A    between atoms: CB_5  and  CG2_7
REMARK    6  A    between atoms: CG1_6  and  CD1_8
REMARK    7  A    between atoms: N_9  and  CA_10
REMARK    8  A    between atoms: CA_10  and  C_11
REMARK    9  A    between atoms: CA_10  and  CB_13
REMARK   10  A    between atoms: CB_13  and  CG_14
REMARK   11  A    between atoms: N_17  and  CA_18
REMARK   12  A    between atoms: CA_18  and  C_19
REMARK   13  A    between atoms: CA_18  and  CB_21
REMARK   14  A    between atoms: CB_21  and  OG1_22
REMARK   15  A    between atoms: CB_21  and  CG2_23
REMARK   16  A    between atoms: N_24  and  CA_25
REMARK   17  A    between atoms: CA_25  and  C_26
REMARK   18  A    between atoms: CA_25  and  CB_29
REMARK   19  A    between atoms: CB_29  and  OG1_30
REMARK   20  A    between atoms: CB_29  and  CG2_31
REMARK                            x       y       z     vdW  Elec       q    Type
REMARK                         _______ _______ _______ _____ _____    ______ ____
ROOT
ATOM      1  C   ASP A   2       4.937  -4.776 -12.540  0.00  0.00    +0.235 C 
ATOM      2  O   ASP A   2       4.750  -3.573 -12.412  0.00  0.00    -0.274 OA
ATOM      3  N   THR A   3       3.888  -5.675 -12.665  0.00  0.00    -0.300 N 
ATOM      4  H   THR A   3       4.049  -6.411 -13.338  0.00  0.00    +0.150 HD
ENDROOT
BRANCH   3   5
ATOM      5  CA  THR A   3       2.494  -5.243 -12.475  0.00  0.00    +0.187 C 
BRANCH   5   6
ATOM      6  C   THR A   3       2.033  -5.378 -11.007  0.00  0.00    +0.237 C 
ATOM      7  O   THR A   3       1.473  -6.399 -10.614  0.00  0.00    -0.274 OA
ATOM      8  N   THR A   4       2.568  -4.424 -10.158  0.00  0.00    -0.294 N 
ATOM      9  H   THR A   4       2.449  -3.474 -10.511  0.00  0.00    +0.150 HD
BRANCH   8  10
ATOM     10  CA  THR A   4       2.317  -4.507  -8.702  0.00  0.00    +0.241 C 
BRANCH  10  11
ATOM     11  C   THR A   4       1.932  -3.165  -8.024  0.00  0.00    +0.257 C 
ATOM     12  O   THR A   4       1.143  -3.248  -7.044  0.00  0.00    -0.203 OA
ATOM     13  OXT THR A   4       2.562  -2.163  -8.482  0.00  0.00    -0.203 OA
ENDBRANCH  10  11
BRANCH  10  14
ATOM     14  CB  THR A   4       3.603  -4.891  -7.936  0.00  0.00    +0.149 C 
ATOM     15  CG2 THR A   4       3.854  -6.393  -7.961  0.00  0.00    +0.041 C 
BRANCH  14  16
ATOM     16  OG1 THR A   4       4.776  -4.293  -8.520  0.00  0.00    -0.389 OA
ATOM     17  H   THR A   4       5.477  -4.995  -8.425  0.00  0.00    +0.210 HD
ENDBRANCH  14  16
ENDBRANCH  10  14
ENDBRANCH   8  10
ENDBRANCH   5   6
BRANCH   5  18
ATOM     18  CB  THR A   3       1.571  -6.144 -13.333  0.00  0.00    +0.141 C 
ATOM     19  CG2 THR A   3       1.701  -5.938 -14.842  0.00  0.00    +0.040 C 
BRANCH  18  20
ATOM     20  OG1 THR A   3       1.842  -7.529 -13.040  0.00  0.00    -0.390 OA
ATOM     21  H   THR A   3       2.710  -7.555 -12.594  0.00  0.00    +0.210 HD
ENDBRANCH  18  20
ENDBRANCH   5  18
ENDBRANCH   3   5
BRANCH   1  22
ATOM     22  CA  ASP A   2       6.341  -5.401 -12.741  0.00  0.00    +0.175 C 
BRANCH  22  25
ATOM     23  C   ILE A   1       7.737  -4.712 -14.640  0.00  0.00    +0.199 C 
ATOM     24  O   ILE A   1       7.267  -5.592 -15.331  0.00  0.00    -0.278 OA
ATOM     25  N   ASP A   2       7.280  -4.437 -13.364  0.00  0.00    -0.304 N 
ATOM     26  H   ASP A   2       8.062  -4.320 -12.694  0.00  0.00    +0.149 HD
BRANCH  23  27
ATOM     27  CA  ILE A   1       8.806  -3.725 -15.151  0.00  0.00    +0.016 C 
BRANCH  27  28
ATOM     28  N   ILE A   1       9.338  -4.269 -16.457  0.00  0.00    +0.386 N 
ATOM     29  H   ILE A   1       8.529  -4.503 -17.046  0.00  0.00    -0.089 HD
ATOM     30  H   ILE A   1       9.914  -5.103 -16.352  0.00  0.00    -0.089 HD
ATOM     31  H   ILE A   1       9.853  -3.523 -16.945  0.00  0.00    -0.089 HD
ENDBRANCH  27  28
BRANCH  27  32
ATOM     32  CB  ILE A   1       8.275  -2.287 -15.343  0.00  0.00    -0.020 C 
ATOM     33  CG2 ILE A   1       9.467  -1.315 -15.371  0.00  0.00    +0.006 C 
BRANCH  32  34
ATOM     34  CG1 ILE A   1       7.441  -2.138 -16.639  0.00  0.00    -0.001 C 
ATOM     35  CD1 ILE A   1       7.930  -1.020 -17.552  0.00  0.00    +0.004 C 
ENDBRANCH  32  34
ENDBRANCH  27  32
ENDBRANCH  23  27
ENDBRANCH  22  25
BRANCH  22  36
ATOM     36  CB  ASP A   2       6.885  -5.859 -11.396  0.00  0.00    +0.189 C 
BRANCH  36  37
ATOM     37  CG  ASP A   2       7.766  -4.808 -10.723  0.00  0.00    +0.236 C 
ATOM     38  OD1 ASP A   2       7.142  -3.948 -10.019  0.00  0.00    -0.205 OA
ATOM     39  OD2 ASP A   2       9.005  -4.987 -10.842  0.00  0.00    -0.205 OA
ENDBRANCH  36  37
ENDBRANCH  22  36
ENDBRANCH   1  22
TORSDOF 16
ENDMDL
MODEL 15
REMARK VINA RESULT:      -6.6      3.154      6.581
REMARK  Name = IDTT_min.pdb
REMARK  20 active torsions:
REMARK  status: ('A' for Active; 'I' for Inactive)
REMARK    1  A    between atoms: N_1  and  CA_2
REMARK    2  A    between atoms: CA_2  and  C_3
REMARK    3  A    between atoms: CA_2  and  CB_5
REMARK    4  A    between atoms: CB_5  and  CG1_6
REMARK    5  A    between atoms: CB_5  and  CG2_7
REMARK    6  A    between atoms: CG1_6  and  CD1_8
REMARK    7  A    between atoms: N_9  and  CA_10
REMARK    8  A    between atoms: CA_10  and  C_11
REMARK    9  A    between atoms: CA_10  and  CB_13
REMARK   10  A    between atoms: CB_13  and  CG_14
REMARK   11  A    between atoms: N_17  and  CA_18
REMARK   12  A    between atoms: CA_18  and  C_19
REMARK   13  A    between atoms: CA_18  and  CB_21
REMARK   14  A    between atoms: CB_21  and  OG1_22
REMARK   15  A    between atoms: CB_21  and  CG2_23
REMARK   16  A    between atoms: N_24  and  CA_25
REMARK   17  A    between atoms: CA_25  and  C_26
REMARK   18  A    between atoms: CA_25  and  CB_29
REMARK   19  A    between atoms: CB_29  and  OG1_30
REMARK   20  A    between atoms: CB_29  and  CG2_31
REMARK                            x       y       z     vdW  Elec       q    Type
REMARK                         _______ _______ _______ _____ _____    ______ ____
ROOT
ATOM      1  C   ASP A   2       2.588  -5.173  -7.057  0.00  0.00    +0.235 C 
ATOM      2  O   ASP A   2       2.722  -4.825  -5.891  0.00  0.00    -0.274 OA
ATOM      3  N   THR A   3       3.340  -6.199  -7.611  0.00  0.00    -0.300 N 
ATOM      4  H   THR A   3       2.822  -6.809  -8.228  0.00  0.00    +0.150 HD
ENDROOT
BRANCH   3   5
ATOM      5  CA  THR A   3       4.459  -6.802  -6.870  0.00  0.00    +0.187 C 
BRANCH   5   6
ATOM      6  C   THR A   3       5.820  -6.549  -7.556  0.00  0.00    +0.237 C 
ATOM      7  O   THR A   3       6.874  -6.728  -6.948  0.00  0.00    -0.274 OA
ATOM      8  N   THR A   4       5.743  -6.418  -8.932  0.00  0.00    -0.294 N 
ATOM      9  H   THR A   4       5.036  -5.742  -9.223  0.00  0.00    +0.150 HD
BRANCH   8  10
ATOM     10  CA  THR A   4       6.981  -6.302  -9.733  0.00  0.00    +0.241 C 
BRANCH  10  11
ATOM     11  C   THR A   4       7.259  -4.888 -10.311  0.00  0.00    +0.257 C 
ATOM     12  O   THR A   4       8.430  -4.685 -10.733  0.00  0.00    -0.203 OA
ATOM     13  OXT THR A   4       6.225  -4.156 -10.387  0.00  0.00    -0.203 OA
ENDBRANCH  10  11
BRANCH  10  14
ATOM     14  CB  THR A   4       6.897  -7.157 -11.016  0.00  0.00    +0.149 C 
ATOM     15  CG2 THR A   4       5.972  -8.355 -10.844  0.00  0.00    +0.041 C 
BRANCH  14  16
ATOM     16  OG1 THR A   4       6.361  -6.411 -12.126  0.00  0.00    -0.389 OA
ATOM     17  H   THR A   4       5.417  -6.725 -12.194  0.00  0.00    +0.210 HD
ENDBRANCH  14  16
ENDBRANCH  10  14
ENDBRANCH   8  10
ENDBRANCH   5   6
BRANCH   5  18
ATOM     18  CB  THR A   3       4.250  -8.336  -6.811  0.00  0.00    +0.141 C 
ATOM     19  CG2 THR A   3       3.046  -8.848  -7.601  0.00  0.00    +0.040 C 
BRANCH  18  20
ATOM     20  OG1 THR A   3       5.430  -9.002  -7.303  0.00  0.00    -0.390 OA
ATOM     21  H   THR A   3       6.180  -8.669  -6.773  0.00  0.00    +0.210 HD
ENDBRANCH  18  20
ENDBRANCH   5  18
ENDBRANCH   3   5
BRANCH   1  22
ATOM     22  CA  ASP A   2       1.467  -4.633  -7.982  0.00  0.00    +0.175 C 
BRANCH  22  25
ATOM     23  C   ILE A   1       2.361  -4.215 -10.230  0.00  0.00    +0.199 C 
ATOM     24  O   ILE A   1       2.963  -3.239  -9.832  0.00  0.00    -0.278 OA
ATOM     25  N   ASP A   2       1.668  -5.063  -9.387  0.00  0.00    -0.304 N 
ATOM     26  H   ASP A   2       0.727  -5.288  -9.758  0.00  0.00    +0.149 HD
BRANCH  23  27
ATOM     27  CA  ILE A   1       2.405  -4.686 -11.698  0.00  0.00    +0.016 C 
BRANCH  27  28
ATOM     28  N   ILE A   1       3.860  -4.796 -12.096  0.00  0.00    +0.386 N 
ATOM     29  H   ILE A   1       4.141  -3.888 -12.485  0.00  0.00    -0.089 HD
ATOM     30  H   ILE A   1       4.043  -5.519 -12.791  0.00  0.00    -0.089 HD
ATOM     31  H   ILE A   1       4.427  -4.944 -11.250  0.00  0.00    -0.089 HD
ENDBRANCH  27  28
BRANCH  27  32
ATOM     32  CB  ILE A   1       1.679  -6.029 -11.936  0.00  0.00    -0.020 C 
ATOM     33  CG2 ILE A   1       0.910  -5.951 -13.266  0.00  0.00    +0.006 C 
BRANCH  32  34
ATOM     34  CG1 ILE A   1       2.658  -7.228 -11.962  0.00  0.00    -0.001 C 
ATOM     35  CD1 ILE A   1       2.038  -8.530 -11.465  0.00  0.00    +0.004 C 
ENDBRANCH  32  34
ENDBRANCH  27  32
ENDBRANCH  23  27
ENDBRANCH  22  25
BRANCH  22  36
ATOM     36  CB  ASP A   2       0.118  -5.124  -7.477  0.00  0.00    +0.189 C 
BRANCH  36  37
ATOM     37  CG  ASP A   2      -0.559  -4.133  -6.532  0.00  0.00    +0.236 C 
ATOM     38  OD1 ASP A   2      -1.320  -4.655  -5.654  0.00  0.00    -0.205 OA
ATOM     39  OD2 ASP A   2      -0.191  -2.937  -6.653  0.00  0.00    -0.205 OA
ENDBRANCH  36  37
ENDBRANCH  22  36
ENDBRANCH   1  22
TORSDOF 16
ENDMDL
MODEL 16
REMARK VINA RESULT:      -6.6      4.760      7.802
REMARK  Name = IDTT_min.pdb
REMARK  20 active torsions:
REMARK  status: ('A' for Active; 'I' for Inactive)
REMARK    1  A    between atoms: N_1  and  CA_2
REMARK    2  A    between atoms: CA_2  and  C_3
REMARK    3  A    between atoms: CA_2  and  CB_5
REMARK    4  A    between atoms: CB_5  and  CG1_6
REMARK    5  A    between atoms: CB_5  and  CG2_7
REMARK    6  A    between atoms: CG1_6  and  CD1_8
REMARK    7  A    between atoms: N_9  and  CA_10
REMARK    8  A    between atoms: CA_10  and  C_11
REMARK    9  A    between atoms: CA_10  and  CB_13
REMARK   10  A    between atoms: CB_13  and  CG_14
REMARK   11  A    between atoms: N_17  and  CA_18
REMARK   12  A    between atoms: CA_18  and  C_19
REMARK   13  A    between atoms: CA_18  and  CB_21
REMARK   14  A    between atoms: CB_21  and  OG1_22
REMARK   15  A    between atoms: CB_21  and  CG2_23
REMARK   16  A    between atoms: N_24  and  CA_25
REMARK   17  A    between atoms: CA_25  and  C_26
REMARK   18  A    between atoms: CA_25  and  CB_29
REMARK   19  A    between atoms: CB_29  and  OG1_30
REMARK   20  A    between atoms: CB_29  and  CG2_31
REMARK                            x       y       z     vdW  Elec       q    Type
REMARK                         _______ _______ _______ _____ _____    ______ ____
ROOT
ATOM      1  C   ASP A   2       7.312  -5.197 -12.168  0.00  0.00    +0.235 C 
ATOM      2  O   ASP A   2       8.193  -5.991 -11.863  0.00  0.00    -0.274 OA
ATOM      3  N   THR A   3       7.010  -4.905 -13.490  0.00  0.00    -0.300 N 
ATOM      4  H   THR A   3       6.022  -4.813 -13.681  0.00  0.00    +0.150 HD
ENDROOT
BRANCH   3   5
ATOM      5  CA  THR A   3       7.853  -5.405 -14.587  0.00  0.00    +0.187 C 
BRANCH   5   6
ATOM      6  C   THR A   3       8.858  -4.343 -15.085  0.00  0.00    +0.237 C 
ATOM      7  O   THR A   3       9.781  -4.653 -15.837  0.00  0.00    -0.274 OA
ATOM      8  N   THR A   4       8.452  -3.037 -14.871  0.00  0.00    -0.294 N 
ATOM      9  H   THR A   4       8.164  -2.869 -13.906  0.00  0.00    +0.150 HD
BRANCH   8  10
ATOM     10  CA  THR A   4       9.253  -1.917 -15.411  0.00  0.00    +0.241 C 
BRANCH  10  11
ATOM     11  C   THR A   4       9.470  -0.732 -14.431  0.00  0.00    +0.257 C 
ATOM     12  O   THR A   4       9.120   0.404 -14.852  0.00  0.00    -0.203 OA
ATOM     13  OXT THR A   4       9.869  -1.089 -13.281  0.00  0.00    -0.203 OA
ENDBRANCH  10  11
BRANCH  10  14
ATOM     14  CB  THR A   4       8.524  -1.226 -16.585  0.00  0.00    +0.149 C 
ATOM     15  CG2 THR A   4       8.940  -1.802 -17.933  0.00  0.00    +0.041 C 
BRANCH  14  16
ATOM     16  OG1 THR A   4       7.097  -1.404 -16.513  0.00  0.00    -0.389 OA
ATOM     17  H   THR A   4       6.969  -2.383 -16.652  0.00  0.00    +0.210 HD
ENDBRANCH  14  16
ENDBRANCH  10  14
ENDBRANCH   8  10
ENDBRANCH   5   6
BRANCH   5  18
ATOM     18  CB  THR A   3       6.944  -5.778 -15.786  0.00  0.00    +0.141 C 
ATOM     19  CG2 THR A   3       5.535  -6.227 -15.403  0.00  0.00    +0.040 C 
BRANCH  18  20
ATOM     20  OG1 THR A   3       6.833  -4.649 -16.675  0.00  0.00    -0.390 OA
ATOM     21  H   THR A   3       5.931  -4.675 -17.049  0.00  0.00    +0.210 HD
ENDBRANCH  18  20
ENDBRANCH   5  18
ENDBRANCH   3   5
BRANCH   1  22
ATOM     22  CA  ASP A   2       6.340  -4.569 -11.138  0.00  0.00    +0.175 C 
BRANCH  22  25
ATOM     23  C   ILE A   1       3.990  -5.122 -11.586  0.00  0.00    +0.199 C 
ATOM     24  O   ILE A   1       3.946  -4.302 -12.480  0.00  0.00    -0.278 OA
ATOM     25  N   ASP A   2       5.156  -5.432 -10.911  0.00  0.00    -0.304 N 
ATOM     26  H   ASP A   2       5.009  -5.460  -9.885  0.00  0.00    +0.149 HD
BRANCH  23  27
ATOM     27  CA  ILE A   1       2.782  -5.993 -11.188  0.00  0.00    +0.016 C 
BRANCH  27  28
ATOM     28  N   ILE A   1       1.719  -5.071 -10.635  0.00  0.00    +0.386 N 
ATOM     29  H   ILE A   1       1.262  -4.615 -11.434  0.00  0.00    -0.089 HD
ATOM     30  H   ILE A   1       2.082  -4.349 -10.014  0.00  0.00    -0.089 HD
ATOM     31  H   ILE A   1       0.998  -5.635 -10.164  0.00  0.00    -0.089 HD
ENDBRANCH  27  28
BRANCH  27  32
ATOM     32  CB  ILE A   1       2.214  -6.829 -12.356  0.00  0.00    -0.020 C 
ATOM     33  CG2 ILE A   1       1.402  -8.003 -11.782  0.00  0.00    +0.006 C 
BRANCH  32  34
ATOM     34  CG1 ILE A   1       1.325  -5.985 -13.303  0.00  0.00    -0.001 C 
ATOM     35  CD1 ILE A   1       1.833  -5.946 -14.739  0.00  0.00    +0.004 C 
ENDBRANCH  32  34
ENDBRANCH  27  32
ENDBRANCH  23  27
ENDBRANCH  22  25
BRANCH  22  36
ATOM     36  CB  ASP A   2       7.076  -4.344  -9.825  0.00  0.00    +0.189 C 
BRANCH  36  37
ATOM     37  CG  ASP A   2       6.263  -4.778  -8.607  0.00  0.00    +0.236 C 
ATOM     38  OD1 ASP A   2       5.285  -4.019  -8.309  0.00  0.00    -0.205 OA
ATOM     39  OD2 ASP A   2       6.577  -5.894  -8.119  0.00  0.00    -0.205 OA
ENDBRANCH  36  37
ENDBRANCH  22  36
ENDBRANCH   1  22
TORSDOF 16
ENDMDL
MODEL 17
REMARK VINA RESULT:      -6.5      2.232      4.506
REMARK  Name = IDTT_min.pdb
REMARK  20 active torsions:
REMARK  status: ('A' for Active; 'I' for Inactive)
REMARK    1  A    between atoms: N_1  and  CA_2
REMARK    2  A    between atoms: CA_2  and  C_3
REMARK    3  A    between atoms: CA_2  and  CB_5
REMARK    4  A    between atoms: CB_5  and  CG1_6
REMARK    5  A    between atoms: CB_5  and  CG2_7
REMARK    6  A    between atoms: CG1_6  and  CD1_8
REMARK    7  A    between atoms: N_9  and  CA_10
REMARK    8  A    between atoms: CA_10  and  C_11
REMARK    9  A    between atoms: CA_10  and  CB_13
REMARK   10  A    between atoms: CB_13  and  CG_14
REMARK   11  A    between atoms: N_17  and  CA_18
REMARK   12  A    between atoms: CA_18  and  C_19
REMARK   13  A    between atoms: CA_18  and  CB_21
REMARK   14  A    between atoms: CB_21  and  OG1_22
REMARK   15  A    between atoms: CB_21  and  CG2_23
REMARK   16  A    between atoms: N_24  and  CA_25
REMARK   17  A    between atoms: CA_25  and  C_26
REMARK   18  A    between atoms: CA_25  and  CB_29
REMARK   19  A    between atoms: CB_29  and  OG1_30
REMARK   20  A    between atoms: CB_29  and  CG2_31
REMARK                            x       y       z     vdW  Elec       q    Type
REMARK                         _______ _______ _______ _____ _____    ______ ____
ROOT
ATOM      1  C   ASP A   2       3.179  -4.298 -10.670  0.00  0.00    +0.235 C 
ATOM      2  O   ASP A   2       2.900  -3.242 -11.224  0.00  0.00    -0.274 OA
ATOM      3  N   THR A   3       3.821  -5.332 -11.335  0.00  0.00    -0.300 N 
ATOM      4  H   THR A   3       4.524  -5.808 -10.787  0.00  0.00    +0.150 HD
ENDROOT
BRANCH   3   5
ATOM      5  CA  THR A   3       4.041  -5.275 -12.789  0.00  0.00    +0.187 C 
BRANCH   5   6
ATOM      6  C   THR A   3       3.759  -6.628 -13.478  0.00  0.00    +0.237 C 
ATOM      7  O   THR A   3       4.675  -7.404 -13.741  0.00  0.00    -0.274 OA
ATOM      8  N   THR A   4       2.424  -6.995 -13.478  0.00  0.00    -0.294 N 
ATOM      9  H   THR A   4       1.814  -6.253 -13.825  0.00  0.00    +0.150 HD
BRANCH   8  10
ATOM     10  CA  THR A   4       2.022  -8.324 -13.988  0.00  0.00    +0.241 C 
BRANCH  10  11
ATOM     11  C   THR A   4       1.499  -8.337 -15.449  0.00  0.00    +0.257 C 
ATOM     12  O   THR A   4       1.205  -9.469 -15.920  0.00  0.00    -0.203 OA
ATOM     13  OXT THR A   4       1.328  -7.179 -15.940  0.00  0.00    -0.203 OA
ENDBRANCH  10  11
BRANCH  10  14
ATOM     14  CB  THR A   4       0.805  -8.874 -13.212  0.00  0.00    +0.149 C 
ATOM     15  CG2 THR A   4       0.784  -8.393 -11.766  0.00  0.00    +0.041 C 
BRANCH  14  16
ATOM     16  OG1 THR A   4      -0.442  -8.433 -13.783  0.00  0.00    -0.389 OA
ATOM     17  H   THR A   4      -1.034  -9.232 -13.717  0.00  0.00    +0.210 HD
ENDBRANCH  14  16
ENDBRANCH  10  14
ENDBRANCH   8  10
ENDBRANCH   5   6
BRANCH   5  18
ATOM     18  CB  THR A   3       5.525  -4.921 -13.056  0.00  0.00    +0.141 C 
ATOM     19  CG2 THR A   3       5.827  -3.424 -13.098  0.00  0.00    +0.040 C 
BRANCH  18  20
ATOM     20  OG1 THR A   3       6.353  -5.521 -12.040  0.00  0.00    -0.390 OA
ATOM     21  H   THR A   3       6.046  -6.442 -11.937  0.00  0.00    +0.210 HD
ENDBRANCH  18  20
ENDBRANCH   5  18
ENDBRANCH   3   5
BRANCH   1  22
ATOM     22  CA  ASP A   2       3.003  -4.531  -9.147  0.00  0.00    +0.175 C 
BRANCH  22  25
ATOM     23  C   ILE A   1       4.774  -5.968  -8.239  0.00  0.00    +0.199 C 
ATOM     24  O   ILE A   1       4.256  -6.951  -8.728  0.00  0.00    -0.278 OA
ATOM     25  N   ASP A   2       4.312  -4.686  -8.466  0.00  0.00    -0.304 N 
ATOM     26  H   ASP A   2       4.248  -4.140  -7.588  0.00  0.00    +0.149 HD
BRANCH  23  27
ATOM     27  CA  ILE A   1       6.075  -6.031  -7.412  0.00  0.00    +0.016 C 
BRANCH  27  28
ATOM     28  N   ILE A   1       6.606  -4.620  -7.295  0.00  0.00    +0.386 N 
ATOM     29  H   ILE A   1       7.537  -4.606  -7.729  0.00  0.00    -0.089 HD
ATOM     30  H   ILE A   1       6.690  -4.290  -6.335  0.00  0.00    -0.089 HD
ATOM     31  H   ILE A   1       6.011  -3.991  -7.852  0.00  0.00    -0.089 HD
ENDBRANCH  27  28
BRANCH  27  32
ATOM     32  CB  ILE A   1       5.884  -6.652  -6.011  0.00  0.00    -0.020 C 
ATOM     33  CG2 ILE A   1       4.409  -6.510  -5.598  0.00  0.00    +0.006 C 
BRANCH  32  34
ATOM     34  CG1 ILE A   1       6.304  -8.141  -5.968  0.00  0.00    -0.001 C 
ATOM     35  CD1 ILE A   1       5.126  -9.107  -6.024  0.00  0.00    +0.004 C 
ENDBRANCH  32  34
ENDBRANCH  27  32
ENDBRANCH  23  27
ENDBRANCH  22  25
BRANCH  22  36
ATOM     36  CB  ASP A   2       2.241  -3.360  -8.544  0.00  0.00    +0.189 C 
BRANCH  36  37
ATOM     37  CG  ASP A   2       1.414  -3.756  -7.322  0.00  0.00    +0.236 C 
ATOM     38  OD1 ASP A   2       1.424  -4.998  -7.041  0.00  0.00    -0.205 OA
ATOM     39  OD2 ASP A   2       0.925  -2.799  -6.670  0.00  0.00    -0.205 OA
ENDBRANCH  36  37
ENDBRANCH  22  36
ENDBRANCH   1  22
TORSDOF 16
ENDMDL
MODEL 18
REMARK VINA RESULT:      -6.4      3.322      8.474
REMARK  Name = IDTT_min.pdb
REMARK  20 active torsions:
REMARK  status: ('A' for Active; 'I' for Inactive)
REMARK    1  A    between atoms: N_1  and  CA_2
REMARK    2  A    between atoms: CA_2  and  C_3
REMARK    3  A    between atoms: CA_2  and  CB_5
REMARK    4  A    between atoms: CB_5  and  CG1_6
REMARK    5  A    between atoms: CB_5  and  CG2_7
REMARK    6  A    between atoms: CG1_6  and  CD1_8
REMARK    7  A    between atoms: N_9  and  CA_10
REMARK    8  A    between atoms: CA_10  and  C_11
REMARK    9  A    between atoms: CA_10  and  CB_13
REMARK   10  A    between atoms: CB_13  and  CG_14
REMARK   11  A    between atoms: N_17  and  CA_18
REMARK   12  A    between atoms: CA_18  and  C_19
REMARK   13  A    between atoms: CA_18  and  CB_21
REMARK   14  A    between atoms: CB_21  and  OG1_22
REMARK   15  A    between atoms: CB_21  and  CG2_23
REMARK   16  A    between atoms: N_24  and  CA_25
REMARK   17  A    between atoms: CA_25  and  C_26
REMARK   18  A    between atoms: CA_25  and  CB_29
REMARK   19  A    between atoms: CB_29  and  OG1_30
REMARK   20  A    between atoms: CB_29  and  CG2_31
REMARK                            x       y       z     vdW  Elec       q    Type
REMARK                         _______ _______ _______ _____ _____    ______ ____
ROOT
ATOM      1  C   ASP A   2       3.874  -4.095 -10.902  0.00  0.00    +0.235 C 
ATOM      2  O   ASP A   2       3.115  -3.221 -10.503  0.00  0.00    -0.274 OA
ATOM      3  N   THR A   3       4.473  -5.002 -10.040  0.00  0.00    -0.300 N 
ATOM      4  H   THR A   3       4.518  -5.947 -10.395  0.00  0.00    +0.150 HD
ENDROOT
BRANCH   3   5
ATOM      5  CA  THR A   3       4.360  -4.847  -8.582  0.00  0.00    +0.187 C 
BRANCH   5   6
ATOM      6  C   THR A   3       5.666  -5.226  -7.849  0.00  0.00    +0.237 C 
ATOM      7  O   THR A   3       6.604  -4.434  -7.781  0.00  0.00    -0.274 OA
ATOM      8  N   THR A   4       5.559  -6.354  -7.052  0.00  0.00    -0.294 N 
ATOM      9  H   THR A   4       5.154  -7.148  -7.550  0.00  0.00    +0.150 HD
BRANCH   8  10
ATOM     10  CA  THR A   4       6.691  -6.761  -6.192  0.00  0.00    +0.241 C 
BRANCH  10  11
ATOM     11  C   THR A   4       7.420  -8.058  -6.634  0.00  0.00    +0.257 C 
ATOM     12  O   THR A   4       8.589  -8.215  -6.188  0.00  0.00    -0.203 OA
ATOM     13  OXT THR A   4       6.688  -8.851  -7.302  0.00  0.00    -0.203 OA
ENDBRANCH  10  11
BRANCH  10  14
ATOM     14  CB  THR A   4       6.206  -7.138  -4.775  0.00  0.00    +0.149 C 
ATOM     15  CG2 THR A   4       4.752  -6.748  -4.546  0.00  0.00    +0.041 C 
BRANCH  14  16
ATOM     16  OG1 THR A   4       6.266  -8.559  -4.546  0.00  0.00    -0.389 OA
ATOM     17  H   THR A   4       5.791  -8.685  -3.679  0.00  0.00    +0.210 HD
ENDBRANCH  14  16
ENDBRANCH  10  14
ENDBRANCH   8  10
ENDBRANCH   5   6
BRANCH   5  18
ATOM     18  CB  THR A   3       3.248  -5.793  -8.063  0.00  0.00    +0.141 C 
ATOM     19  CG2 THR A   3       1.896  -5.121  -7.829  0.00  0.00    +0.040 C 
BRANCH  18  20
ATOM     20  OG1 THR A   3       3.060  -6.873  -8.999  0.00  0.00    -0.390 OA
ATOM     21  H   THR A   3       2.823  -6.464  -9.853  0.00  0.00    +0.210 HD
ENDBRANCH  18  20
ENDBRANCH   5  18
ENDBRANCH   3   5
BRANCH   1  22
ATOM     22  CA  ASP A   2       4.116  -4.388 -12.405  0.00  0.00    +0.175 C 
BRANCH  22  25
ATOM     23  C   ILE A   1       6.415  -4.002 -13.175  0.00  0.00    +0.199 C 
ATOM     24  O   ILE A   1       6.204  -2.810 -13.274  0.00  0.00    -0.278 OA
ATOM     25  N   ASP A   2       5.492  -4.885 -12.647  0.00  0.00    -0.304 N 
ATOM     26  H   ASP A   2       5.395  -5.734 -13.233  0.00  0.00    +0.149 HD
BRANCH  23  27
ATOM     27  CA  ILE A   1       7.777  -4.642 -13.513  0.00  0.00    +0.016 C 
BRANCH  27  28
ATOM     28  N   ILE A   1       8.069  -4.348 -14.967  0.00  0.00    +0.386 N 
ATOM     29  H   ILE A   1       9.027  -3.982 -15.020  0.00  0.00    -0.089 HD
ATOM     30  H   ILE A   1       7.437  -3.666 -15.384  0.00  0.00    -0.089 HD
ATOM     31  H   ILE A   1       8.061  -5.232 -15.495  0.00  0.00    -0.089 HD
ENDBRANCH  27  28
BRANCH  27  32
ATOM     32  CB  ILE A   1       8.932  -4.138 -12.619  0.00  0.00    -0.020 C 
ATOM     33  CG2 ILE A   1       9.756  -5.346 -12.142  0.00  0.00    +0.006 C 
BRANCH  32  34
ATOM     34  CG1 ILE A   1       9.848  -3.132 -13.358  0.00  0.00    -0.001 C 
ATOM     35  CD1 ILE A   1       9.615  -1.683 -12.947  0.00  0.00    +0.004 C 
ENDBRANCH  32  34
ENDBRANCH  27  32
ENDBRANCH  23  27
ENDBRANCH  22  25
BRANCH  22  36
ATOM     36  CB  ASP A   2       3.102  -5.416 -12.886  0.00  0.00    +0.189 C 
BRANCH  36  37
ATOM     37  CG  ASP A   2       3.684  -6.826 -12.978  0.00  0.00    +0.236 C 
ATOM     38  OD1 ASP A   2       4.089  -7.170 -14.136  0.00  0.00    -0.205 OA
ATOM     39  OD2 ASP A   2       3.809  -7.429 -11.883  0.00  0.00    -0.205 OA
ENDBRANCH  36  37
ENDBRANCH  22  36
ENDBRANCH   1  22
TORSDOF 16
ENDMDL
MODEL 19
REMARK VINA RESULT:      -6.4      4.243      7.017
REMARK  Name = IDTT_min.pdb
REMARK  20 active torsions:
REMARK  status: ('A' for Active; 'I' for Inactive)
REMARK    1  A    between atoms: N_1  and  CA_2
REMARK    2  A    between atoms: CA_2  and  C_3
REMARK    3  A    between atoms: CA_2  and  CB_5
REMARK    4  A    between atoms: CB_5  and  CG1_6
REMARK    5  A    between atoms: CB_5  and  CG2_7
REMARK    6  A    between atoms: CG1_6  and  CD1_8
REMARK    7  A    between atoms: N_9  and  CA_10
REMARK    8  A    between atoms: CA_10  and  C_11
REMARK    9  A    between atoms: CA_10  and  CB_13
REMARK   10  A    between atoms: CB_13  and  CG_14
REMARK   11  A    between atoms: N_17  and  CA_18
REMARK   12  A    between atoms: CA_18  and  C_19
REMARK   13  A    between atoms: CA_18  and  CB_21
REMARK   14  A    between atoms: CB_21  and  OG1_22
REMARK   15  A    between atoms: CB_21  and  CG2_23
REMARK   16  A    between atoms: N_24  and  CA_25
REMARK   17  A    between atoms: CA_25  and  C_26
REMARK   18  A    between atoms: CA_25  and  CB_29
REMARK   19  A    between atoms: CB_29  and  OG1_30
REMARK   20  A    between atoms: CB_29  and  CG2_31
REMARK                            x       y       z     vdW  Elec       q    Type
REMARK                         _______ _______ _______ _____ _____    ______ ____
ROOT
ATOM      1  C   ASP A   2       5.702  -4.252 -12.424  0.00  0.00    +0.235 C 
ATOM      2  O   ASP A   2       5.558  -3.207 -13.045  0.00  0.00    -0.274 OA
ATOM      3  N   THR A   3       6.941  -4.668 -11.959  0.00  0.00    -0.300 N 
ATOM      4  H   THR A   3       6.923  -5.082 -11.037  0.00  0.00    +0.150 HD
ENDROOT
BRANCH   3   5
ATOM      5  CA  THR A   3       8.171  -3.957 -12.342  0.00  0.00    +0.187 C 
BRANCH   5   6
ATOM      6  C   THR A   3       8.511  -4.138 -13.838  0.00  0.00    +0.237 C 
ATOM      7  O   THR A   3       8.811  -5.242 -14.287  0.00  0.00    -0.274 OA
ATOM      8  N   THR A   4       8.155  -3.061 -14.632  0.00  0.00    -0.294 N 
ATOM      9  H   THR A   4       8.500  -2.173 -14.265  0.00  0.00    +0.150 HD
BRANCH   8  10
ATOM     10  CA  THR A   4       8.302  -3.145 -16.101  0.00  0.00    +0.241 C 
BRANCH  10  11
ATOM     11  C   THR A   4       8.480  -1.782 -16.823  0.00  0.00    +0.257 C 
ATOM     12  O   THR A   4       9.303  -1.767 -17.779  0.00  0.00    -0.203 OA
ATOM     13  OXT THR A   4       7.679  -0.884 -16.422  0.00  0.00    -0.203 OA
ENDBRANCH  10  11
BRANCH  10  14
ATOM     14  CB  THR A   4       7.014  -3.686 -16.760  0.00  0.00    +0.149 C 
ATOM     15  CG2 THR A   4       7.318  -4.659 -17.892  0.00  0.00    +0.041 C 
BRANCH  14  16
ATOM     16  OG1 THR A   4       6.200  -4.420 -15.827  0.00  0.00    -0.389 OA
ATOM     17  H   THR A   4       5.336  -4.547 -16.308  0.00  0.00    +0.210 HD
ENDBRANCH  14  16
ENDBRANCH  10  14
ENDBRANCH   8  10
ENDBRANCH   5   6
BRANCH   5  18
ATOM     18  CB  THR A   3       9.356  -4.533 -11.526  0.00  0.00    +0.141 C 
ATOM     19  CG2 THR A   3       9.965  -3.565 -10.514  0.00  0.00    +0.040 C 
BRANCH  18  20
ATOM     20  OG1 THR A   3       8.925  -5.714 -10.820  0.00  0.00    -0.390 OA
ATOM     21  H   THR A   3       8.843  -6.424 -11.486  0.00  0.00    +0.210 HD
ENDBRANCH  18  20
ENDBRANCH   5  18
ENDBRANCH   3   5
BRANCH   1  22
ATOM     22  CA  ASP A   2       4.515  -5.129 -11.949  0.00  0.00    +0.175 C 
BRANCH  22  25
ATOM     23  C   ILE A   1       4.050  -4.758  -9.567  0.00  0.00    +0.199 C 
ATOM     24  O   ILE A   1       5.037  -5.393  -9.254  0.00  0.00    -0.278 OA
ATOM     25  N   ASP A   2       3.738  -4.458 -10.879  0.00  0.00    -0.304 N 
ATOM     26  H   ASP A   2       2.740  -4.642 -11.087  0.00  0.00    +0.149 HD
BRANCH  23  27
ATOM     27  CA  ILE A   1       3.106  -4.115  -8.532  0.00  0.00    +0.016 C 
BRANCH  27  28
ATOM     28  N   ILE A   1       2.095  -3.287  -9.292  0.00  0.00    +0.386 N 
ATOM     29  H   ILE A   1       1.167  -3.683  -9.100  0.00  0.00    -0.089 HD
ATOM     30  H   ILE A   1       2.243  -3.281 -10.301  0.00  0.00    -0.089 HD
ATOM     31  H   ILE A   1       2.093  -2.330  -8.913  0.00  0.00    -0.089 HD
ENDBRANCH  27  28
BRANCH  27  32
ATOM     32  CB  ILE A   1       2.389  -5.143  -7.629  0.00  0.00    -0.020 C 
ATOM     33  CG2 ILE A   1       1.401  -4.400  -6.714  0.00  0.00    +0.006 C 
BRANCH  32  34
ATOM     34  CG1 ILE A   1       1.641  -6.222  -8.448  0.00  0.00    -0.001 C 
ATOM     35  CD1 ILE A   1       2.134  -7.640  -8.180  0.00  0.00    +0.004 C 
ENDBRANCH  32  34
ENDBRANCH  27  32
ENDBRANCH  23  27
ENDBRANCH  22  25
BRANCH  22  36
ATOM     36  CB  ASP A   2       3.610  -5.433 -13.134  0.00  0.00    +0.189 C 
BRANCH  36  37
ATOM     37  CG  ASP A   2       2.243  -5.971 -12.714  0.00  0.00    +0.236 C 
ATOM     38  OD1 ASP A   2       1.251  -5.487 -13.350  0.00  0.00    -0.205 OA
ATOM     39  OD2 ASP A   2       2.268  -6.912 -11.880  0.00  0.00    -0.205 OA
ENDBRANCH  36  37
ENDBRANCH  22  36
ENDBRANCH   1  22
TORSDOF 16
ENDMDL
