MODEL 1
REMARK VINA RESULT:      -6.6      0.000      0.000
REMARK  Name = LDTT_min.pdb
REMARK  20 active torsions:
REMARK  status: ('A' for Active; 'I' for Inactive)
REMARK    1  A    between atoms: N_1  and  CA_2
REMARK    2  A    between atoms: CA_2  and  C_3
REMARK    3  A    between atoms: CA_2  and  CB_5
REMARK    4  A    between atoms: CB_5  and  CG_6
REMARK    5  A    between atoms: CG_6  and  CD1_7
REMARK    6  A    between atoms: CG_6  and  CD2_8
REMARK    7  A    between atoms: N_9  and  CA_10
REMARK    8  A    between atoms: CA_10  and  C_11
REMARK    9  A    between atoms: CA_10  and  CB_13
REMARK   10  A    between atoms: CB_13  and  CG_14
REMARK   11  A    between atoms: N_17  and  CA_18
REMARK   12  A    between atoms: CA_18  and  C_19
REMARK   13  A    between atoms: CA_18  and  CB_21
REMARK   14  A    between atoms: CB_21  and  OG1_22
REMARK   15  A    between atoms: CB_21  and  CG2_23
REMARK   16  A    between atoms: N_24  and  CA_25
REMARK   17  A    between atoms: CA_25  and  C_26
REMARK   18  A    between atoms: CA_25  and  CB_29
REMARK   19  A    between atoms: CB_29  and  OG1_30
REMARK   20  A    between atoms: CB_29  and  CG2_31
REMARK                            x       y       z     vdW  Elec       q    Type
REMARK                         _______ _______ _______ _____ _____    ______ ____
ROOT
ATOM      1  C   ASP A   2       2.882  -4.415 -10.776  0.00  0.00    +0.235 C 
ATOM      2  O   ASP A   2       2.697  -3.307 -11.271  0.00  0.00    -0.274 OA
ATOM      3  N   THR A   3       2.728  -5.581 -11.514  0.00  0.00    -0.300 N 
ATOM      4  H   THR A   3       3.449  -6.270 -11.341  0.00  0.00    +0.150 HD
ENDROOT
BRANCH   3   5
ATOM      5  CA  THR A   3       2.203  -5.509 -12.885  0.00  0.00    +0.187 C 
BRANCH   5   6
ATOM      6  C   THR A   3       1.093  -6.550 -13.114  0.00  0.00    +0.237 C 
ATOM      7  O   THR A   3       0.100  -6.296 -13.788  0.00  0.00    -0.274 OA
ATOM      8  N   THR A   4       1.487  -7.830 -12.764  0.00  0.00    -0.294 N 
ATOM      9  H   THR A   4       1.928  -7.852 -11.848  0.00  0.00    +0.150 HD
BRANCH   8  10
ATOM     10  CA  THR A   4       0.562  -8.959 -12.962  0.00  0.00    +0.241 C 
BRANCH  10  11
ATOM     11  C   THR A   4       0.456  -9.926 -11.752  0.00  0.00    +0.257 C 
ATOM     12  O   THR A   4       1.546 -10.262 -11.217  0.00  0.00    -0.203 OA
ATOM     13  OXT THR A   4      -0.739 -10.162 -11.396  0.00  0.00    -0.203 OA
ENDBRANCH  10  11
BRANCH  10  14
ATOM     14  CB  THR A   4       1.081  -9.877 -14.088  0.00  0.00    +0.149 C 
ATOM     15  CG2 THR A   4       0.555  -9.458 -15.456  0.00  0.00    +0.041 C 
BRANCH  14  16
ATOM     16  OG1 THR A   4       2.512  -9.804 -14.217  0.00  0.00    -0.389 OA
ATOM     17  H   THR A   4       2.779 -10.688 -14.605  0.00  0.00    +0.210 HD
ENDBRANCH  14  16
ENDBRANCH  10  14
ENDBRANCH   8  10
ENDBRANCH   5   6
BRANCH   5  18
ATOM     18  CB  THR A   3       3.340  -5.839 -13.883  0.00  0.00    +0.141 C 
ATOM     19  CG2 THR A   3       4.560  -6.493 -13.248  0.00  0.00    +0.040 C 
BRANCH  18  20
ATOM     20  OG1 THR A   3       2.835  -6.705 -14.917  0.00  0.00    -0.390 OA
ATOM     21  H   THR A   3       2.916  -7.618 -14.582  0.00  0.00    +0.210 HD
ENDBRANCH  18  20
ENDBRANCH   5  18
ENDBRANCH   3   5
BRANCH   1  22
ATOM     22  CA  ASP A   2       3.479  -4.624  -9.368  0.00  0.00    +0.175 C 
BRANCH  22  25
ATOM     23  C   LEU A   1       2.038  -3.386  -7.836  0.00  0.00    +0.199 C 
ATOM     24  O   LEU A   1       2.482  -2.340  -8.261  0.00  0.00    -0.278 OA
ATOM     25  N   ASP A   2       2.430  -4.629  -8.317  0.00  0.00    -0.304 N 
ATOM     26  H   ASP A   2       2.808  -5.197  -7.551  0.00  0.00    +0.149 HD
BRANCH  23  27
ATOM     27  CA  LEU A   1       0.969  -3.443  -6.737  0.00  0.00    +0.013 C 
BRANCH  27  28
ATOM     28  N   LEU A   1       0.578  -2.048  -6.319  0.00  0.00    +0.386 N 
ATOM     29  H   LEU A   1      -0.061  -2.124  -5.515  0.00  0.00    -0.089 HD
ATOM     30  H   LEU A   1       0.107  -1.526  -7.063  0.00  0.00    -0.089 HD
ATOM     31  H   LEU A   1       1.408  -1.541  -5.990  0.00  0.00    -0.089 HD
ENDBRANCH  27  28
BRANCH  27  32
ATOM     32  CB  LEU A   1      -0.266  -4.206  -7.211  0.00  0.00    -0.004 C 
BRANCH  32  33
ATOM     33  CG  LEU A   1      -1.479  -4.153  -6.261  0.00  0.00    -0.018 C 
ATOM     34  CD1 LEU A   1      -2.722  -3.732  -7.049  0.00  0.00    +0.007 C 
ATOM     35  CD2 LEU A   1      -1.741  -5.492  -5.566  0.00  0.00    +0.007 C 
ENDBRANCH  32  33
ENDBRANCH  27  32
ENDBRANCH  23  27
ENDBRANCH  22  25
BRANCH  22  36
ATOM     36  CB  ASP A   2       4.220  -5.952  -9.347  0.00  0.00    +0.189 C 
BRANCH  36  37
ATOM     37  CG  ASP A   2       3.483  -6.984  -8.504  0.00  0.00    +0.236 C 
ATOM     38  OD1 ASP A   2       3.860  -7.077  -7.297  0.00  0.00    -0.205 OA
ATOM     39  OD2 ASP A   2       2.477  -7.498  -9.061  0.00  0.00    -0.205 OA
ENDBRANCH  36  37
ENDBRANCH  22  36
ENDBRANCH   1  22
TORSDOF 16
ENDMDL
MODEL 2
REMARK VINA RESULT:      -6.5      1.562      2.294
REMARK  Name = LDTT_min.pdb
REMARK  20 active torsions:
REMARK  status: ('A' for Active; 'I' for Inactive)
REMARK    1  A    between atoms: N_1  and  CA_2
REMARK    2  A    between atoms: CA_2  and  C_3
REMARK    3  A    between atoms: CA_2  and  CB_5
REMARK    4  A    between atoms: CB_5  and  CG_6
REMARK    5  A    between atoms: CG_6  and  CD1_7
REMARK    6  A    between atoms: CG_6  and  CD2_8
REMARK    7  A    between atoms: N_9  and  CA_10
REMARK    8  A    between atoms: CA_10  and  C_11
REMARK    9  A    between atoms: CA_10  and  CB_13
REMARK   10  A    between atoms: CB_13  and  CG_14
REMARK   11  A    between atoms: N_17  and  CA_18
REMARK   12  A    between atoms: CA_18  and  C_19
REMARK   13  A    between atoms: CA_18  and  CB_21
REMARK   14  A    between atoms: CB_21  and  OG1_22
REMARK   15  A    between atoms: CB_21  and  CG2_23
REMARK   16  A    between atoms: N_24  and  CA_25
REMARK   17  A    between atoms: CA_25  and  C_26
REMARK   18  A    between atoms: CA_25  and  CB_29
REMARK   19  A    between atoms: CB_29  and  OG1_30
REMARK   20  A    between atoms: CB_29  and  CG2_31
REMARK                            x       y       z     vdW  Elec       q    Type
REMARK                         _______ _______ _______ _____ _____    ______ ____
ROOT
ATOM      1  C   ASP A   2       2.916  -5.875 -10.378  0.00  0.00    +0.235 C 
ATOM      2  O   ASP A   2       1.714  -5.902 -10.627  0.00  0.00    -0.274 OA
ATOM      3  N   THR A   3       3.868  -5.721 -11.376  0.00  0.00    -0.300 N 
ATOM      4  H   THR A   3       4.619  -5.091 -11.128  0.00  0.00    +0.150 HD
ENDROOT
BRANCH   3   5
ATOM      5  CA  THR A   3       3.449  -5.723 -12.785  0.00  0.00    +0.187 C 
BRANCH   5   6
ATOM      6  C   THR A   3       3.282  -7.158 -13.316  0.00  0.00    +0.237 C 
ATOM      7  O   THR A   3       4.181  -7.987 -13.226  0.00  0.00    -0.274 OA
ATOM      8  N   THR A   4       1.961  -7.471 -13.589  0.00  0.00    -0.294 N 
ATOM      9  H   THR A   4       1.507  -6.743 -14.136  0.00  0.00    +0.150 HD
BRANCH   8  10
ATOM     10  CA  THR A   4       1.613  -8.821 -14.063  0.00  0.00    +0.241 C 
BRANCH  10  11
ATOM     11  C   THR A   4       1.091  -8.878 -15.524  0.00  0.00    +0.257 C 
ATOM     12  O   THR A   4       0.692 -10.005 -15.924  0.00  0.00    -0.203 OA
ATOM     13  OXT THR A   4       1.037  -7.742 -16.088  0.00  0.00    -0.203 OA
ENDBRANCH  10  11
BRANCH  10  14
ATOM     14  CB  THR A   4       0.423  -9.376 -13.254  0.00  0.00    +0.149 C 
ATOM     15  CG2 THR A   4       0.511  -9.004 -11.779  0.00  0.00    +0.041 C 
BRANCH  14  16
ATOM     16  OG1 THR A   4      -0.827  -8.811 -13.691  0.00  0.00    -0.389 OA
ATOM     17  H   THR A   4      -0.586  -7.908 -14.053  0.00  0.00    +0.210 HD
ENDBRANCH  14  16
ENDBRANCH  10  14
ENDBRANCH   8  10
ENDBRANCH   5   6
BRANCH   5  18
ATOM     18  CB  THR A   3       4.549  -5.052 -13.644  0.00  0.00    +0.141 C 
ATOM     19  CG2 THR A   3       5.911  -4.974 -12.967  0.00  0.00    +0.040 C 
BRANCH  18  20
ATOM     20  OG1 THR A   3       4.688  -5.763 -14.888  0.00  0.00    -0.390 OA
ATOM     21  H   THR A   3       4.079  -6.525 -14.844  0.00  0.00    +0.210 HD
ENDBRANCH  18  20
ENDBRANCH   5  18
ENDBRANCH   3   5
BRANCH   1  22
ATOM     22  CA  ASP A   2       3.480  -5.815  -8.942  0.00  0.00    +0.175 C 
BRANCH  22  25
ATOM     23  C   LEU A   1       2.144  -4.221  -7.666  0.00  0.00    +0.199 C 
ATOM     24  O   LEU A   1       2.700  -3.301  -8.230  0.00  0.00    -0.278 OA
ATOM     25  N   ASP A   2       2.415  -5.555  -7.939  0.00  0.00    -0.304 N 
ATOM     26  H   ASP A   2       2.719  -6.032  -7.083  0.00  0.00    +0.149 HD
BRANCH  23  27
ATOM     27  CA  LEU A   1       1.053  -4.002  -6.609  0.00  0.00    +0.013 C 
BRANCH  27  28
ATOM     28  N   LEU A   1       0.740  -2.532  -6.480  0.00  0.00    +0.386 N 
ATOM     29  H   LEU A   1       0.188  -2.399  -5.622  0.00  0.00    -0.089 HD
ATOM     30  H   LEU A   1       0.207  -2.168  -7.273  0.00  0.00    -0.089 HD
ATOM     31  H   LEU A   1       1.612  -2.004  -6.357  0.00  0.00    -0.089 HD
ENDBRANCH  27  28
BRANCH  27  32
ATOM     32  CB  LEU A   1      -0.218  -4.772  -6.964  0.00  0.00    -0.004 C 
BRANCH  32  33
ATOM     33  CG  LEU A   1      -1.414  -4.539  -6.019  0.00  0.00    -0.018 C 
ATOM     34  CD1 LEU A   1      -2.581  -3.951  -6.816  0.00  0.00    +0.007 C 
ATOM     35  CD2 LEU A   1      -1.867  -5.822  -5.317  0.00  0.00    +0.007 C 
ENDBRANCH  32  33
ENDBRANCH  27  32
ENDBRANCH  23  27
ENDBRANCH  22  25
BRANCH  22  36
ATOM     36  CB  ASP A   2       4.153  -7.142  -8.629  0.00  0.00    +0.189 C 
BRANCH  36  37
ATOM     37  CG  ASP A   2       3.472  -7.849  -7.465  0.00  0.00    +0.236 C 
ATOM     38  OD1 ASP A   2       3.973  -7.629  -6.321  0.00  0.00    -0.205 OA
ATOM     39  OD2 ASP A   2       2.392  -8.427  -7.758  0.00  0.00    -0.205 OA
ENDBRANCH  36  37
ENDBRANCH  22  36
ENDBRANCH   1  22
TORSDOF 16
ENDMDL
MODEL 3
REMARK VINA RESULT:      -6.5      1.949      2.880
REMARK  Name = LDTT_min.pdb
REMARK  20 active torsions:
REMARK  status: ('A' for Active; 'I' for Inactive)
REMARK    1  A    between atoms: N_1  and  CA_2
REMARK    2  A    between atoms: CA_2  and  C_3
REMARK    3  A    between atoms: CA_2  and  CB_5
REMARK    4  A    between atoms: CB_5  and  CG_6
REMARK    5  A    between atoms: CG_6  and  CD1_7
REMARK    6  A    between atoms: CG_6  and  CD2_8
REMARK    7  A    between atoms: N_9  and  CA_10
REMARK    8  A    between atoms: CA_10  and  C_11
REMARK    9  A    between atoms: CA_10  and  CB_13
REMARK   10  A    between atoms: CB_13  and  CG_14
REMARK   11  A    between atoms: N_17  and  CA_18
REMARK   12  A    between atoms: CA_18  and  C_19
REMARK   13  A    between atoms: CA_18  and  CB_21
REMARK   14  A    between atoms: CB_21  and  OG1_22
REMARK   15  A    between atoms: CB_21  and  CG2_23
REMARK   16  A    between atoms: N_24  and  CA_25
REMARK   17  A    between atoms: CA_25  and  C_26
REMARK   18  A    between atoms: CA_25  and  CB_29
REMARK   19  A    between atoms: CB_29  and  OG1_30
REMARK   20  A    between atoms: CB_29  and  CG2_31
REMARK                            x       y       z     vdW  Elec       q    Type
REMARK                         _______ _______ _______ _____ _____    ______ ____
ROOT
ATOM      1  C   ASP A   2       3.097  -4.343  -9.672  0.00  0.00    +0.235 C 
ATOM      2  O   ASP A   2       2.751  -3.208  -9.984  0.00  0.00    -0.274 OA
ATOM      3  N   THR A   3       4.016  -5.062 -10.425  0.00  0.00    -0.300 N 
ATOM      4  H   THR A   3       4.693  -5.567  -9.868  0.00  0.00    +0.150 HD
ENDROOT
BRANCH   3   5
ATOM      5  CA  THR A   3       4.493  -4.515 -11.703  0.00  0.00    +0.187 C 
BRANCH   5   6
ATOM      6  C   THR A   3       3.907  -5.291 -12.896  0.00  0.00    +0.237 C 
ATOM      7  O   THR A   3       4.291  -5.095 -14.045  0.00  0.00    -0.274 OA
ATOM      8  N   THR A   4       3.179  -6.401 -12.500  0.00  0.00    -0.294 N 
ATOM      9  H   THR A   4       2.523  -6.175 -11.757  0.00  0.00    +0.150 HD
BRANCH   8  10
ATOM     10  CA  THR A   4       2.586  -7.286 -13.517  0.00  0.00    +0.241 C 
BRANCH  10  11
ATOM     11  C   THR A   4       1.061  -7.089 -13.733  0.00  0.00    +0.257 C 
ATOM     12  O   THR A   4       0.515  -6.197 -13.029  0.00  0.00    -0.203 OA
ATOM     13  OXT THR A   4       0.589  -7.790 -14.679  0.00  0.00    -0.203 OA
ENDBRANCH  10  11
BRANCH  10  14
ATOM     14  CB  THR A   4       2.679  -8.756 -13.058  0.00  0.00    +0.149 C 
ATOM     15  CG2 THR A   4       3.908  -9.009 -12.194  0.00  0.00    +0.041 C 
BRANCH  14  16
ATOM     16  OG1 THR A   4       1.569  -9.122 -12.218  0.00  0.00    -0.389 OA
ATOM     17  H   THR A   4       1.112  -8.256 -12.008  0.00  0.00    +0.210 HD
ENDBRANCH  14  16
ENDBRANCH  10  14
ENDBRANCH   8  10
ENDBRANCH   5   6
BRANCH   5  18
ATOM     18  CB  THR A   3       6.031  -4.669 -11.780  0.00  0.00    +0.141 C 
ATOM     19  CG2 THR A   3       6.748  -4.459 -10.453  0.00  0.00    +0.040 C 
BRANCH  18  20
ATOM     20  OG1 THR A   3       6.359  -5.978 -12.282  0.00  0.00    -0.390 OA
ATOM     21  H   THR A   3       6.875  -6.424 -11.584  0.00  0.00    +0.210 HD
ENDBRANCH  18  20
ENDBRANCH   5  18
ENDBRANCH   3   5
BRANCH   1  22
ATOM     22  CA  ASP A   2       2.708  -5.008  -8.333  0.00  0.00    +0.175 C 
BRANCH  22  25
ATOM     23  C   LEU A   1       0.774  -4.561  -6.915  0.00  0.00    +0.199 C 
ATOM     24  O   LEU A   1       1.504  -4.107  -6.059  0.00  0.00    -0.278 OA
ATOM     25  N   ASP A   2       1.237  -5.035  -8.136  0.00  0.00    -0.304 N 
ATOM     26  H   ASP A   2       0.959  -6.015  -8.259  0.00  0.00    +0.149 HD
BRANCH  23  27
ATOM     27  CA  LEU A   1      -0.750  -4.629  -6.748  0.00  0.00    +0.013 C 
BRANCH  27  28
ATOM     28  N   LEU A   1      -1.106  -4.843  -5.299  0.00  0.00    +0.386 N 
ATOM     29  H   LEU A   1      -0.292  -4.576  -4.728  0.00  0.00    -0.089 HD
ATOM     30  H   LEU A   1      -1.349  -5.815  -5.087  0.00  0.00    -0.089 HD
ATOM     31  H   LEU A   1      -1.873  -4.213  -5.036  0.00  0.00    -0.089 HD
ENDBRANCH  27  28
BRANCH  27  32
ATOM     32  CB  LEU A   1      -1.416  -3.353  -7.260  0.00  0.00    -0.004 C 
BRANCH  32  33
ATOM     33  CG  LEU A   1      -2.754  -2.991  -6.586  0.00  0.00    -0.018 C 
ATOM     34  CD1 LEU A   1      -3.133  -1.553  -6.949  0.00  0.00    +0.007 C 
ATOM     35  CD2 LEU A   1      -3.889  -3.937  -6.987  0.00  0.00    +0.007 C 
ENDBRANCH  32  33
ENDBRANCH  27  32
ENDBRANCH  23  27
ENDBRANCH  22  25
BRANCH  22  36
ATOM     36  CB  ASP A   2       3.244  -6.431  -8.325  0.00  0.00    +0.189 C 
BRANCH  36  37
ATOM     37  CG  ASP A   2       2.169  -7.430  -8.730  0.00  0.00    +0.236 C 
ATOM     38  OD1 ASP A   2       1.789  -7.367  -9.939  0.00  0.00    -0.205 OA
ATOM     39  OD2 ASP A   2       1.912  -8.308  -7.865  0.00  0.00    -0.205 OA
ENDBRANCH  36  37
ENDBRANCH  22  36
ENDBRANCH   1  22
TORSDOF 16
ENDMDL
MODEL 4
REMARK VINA RESULT:      -6.4      3.370      5.525
REMARK  Name = LDTT_min.pdb
REMARK  20 active torsions:
REMARK  status: ('A' for Active; 'I' for Inactive)
REMARK    1  A    between atoms: N_1  and  CA_2
REMARK    2  A    between atoms: CA_2  and  C_3
REMARK    3  A    between atoms: CA_2  and  CB_5
REMARK    4  A    between atoms: CB_5  and  CG_6
REMARK    5  A    between atoms: CG_6  and  CD1_7
REMARK    6  A    between atoms: CG_6  and  CD2_8
REMARK    7  A    between atoms: N_9  and  CA_10
REMARK    8  A    between atoms: CA_10  and  C_11
REMARK    9  A    between atoms: CA_10  and  CB_13
REMARK   10  A    between atoms: CB_13  and  CG_14
REMARK   11  A    between atoms: N_17  and  CA_18
REMARK   12  A    between atoms: CA_18  and  C_19
REMARK   13  A    between atoms: CA_18  and  CB_21
REMARK   14  A    between atoms: CB_21  and  OG1_22
REMARK   15  A    between atoms: CB_21  and  CG2_23
REMARK   16  A    between atoms: N_24  and  CA_25
REMARK   17  A    between atoms: CA_25  and  C_26
REMARK   18  A    between atoms: CA_25  and  CB_29
REMARK   19  A    between atoms: CB_29  and  OG1_30
REMARK   20  A    between atoms: CB_29  and  CG2_31
REMARK                            x       y       z     vdW  Elec       q    Type
REMARK                         _______ _______ _______ _____ _____    ______ ____
ROOT
ATOM      1  C   ASP A   2       3.410  -4.475 -10.631  0.00  0.00    +0.235 C 
ATOM      2  O   ASP A   2       3.243  -3.271 -10.465  0.00  0.00    -0.274 OA
ATOM      3  N   THR A   3       4.531  -4.977 -11.279  0.00  0.00    -0.300 N 
ATOM      4  H   THR A   3       4.923  -5.799 -10.838  0.00  0.00    +0.150 HD
ENDROOT
BRANCH   3   5
ATOM      5  CA  THR A   3       5.483  -4.049 -11.905  0.00  0.00    +0.187 C 
BRANCH   5   6
ATOM      6  C   THR A   3       5.666  -4.360 -13.401  0.00  0.00    +0.237 C 
ATOM      7  O   THR A   3       4.784  -4.904 -14.059  0.00  0.00    -0.274 OA
ATOM      8  N   THR A   4       6.746  -3.692 -13.953  0.00  0.00    -0.294 N 
ATOM      9  H   THR A   4       7.580  -3.787 -13.379  0.00  0.00    +0.150 HD
BRANCH   8  10
ATOM     10  CA  THR A   4       7.040  -3.838 -15.388  0.00  0.00    +0.241 C 
BRANCH  10  11
ATOM     11  C   THR A   4       7.809  -5.134 -15.761  0.00  0.00    +0.257 C 
ATOM     12  O   THR A   4       7.771  -5.469 -16.976  0.00  0.00    -0.203 OA
ATOM     13  OXT THR A   4       8.471  -5.626 -14.796  0.00  0.00    -0.203 OA
ENDBRANCH  10  11
BRANCH  10  14
ATOM     14  CB  THR A   4       8.004  -2.725 -15.848  0.00  0.00    +0.149 C 
ATOM     15  CG2 THR A   4       7.339  -1.757 -16.819  0.00  0.00    +0.041 C 
BRANCH  14  16
ATOM     16  OG1 THR A   4       8.422  -1.897 -14.748  0.00  0.00    -0.389 OA
ATOM     17  H   THR A   4       7.974  -2.293 -13.945  0.00  0.00    +0.210 HD
ENDBRANCH  14  16
ENDBRANCH  10  14
ENDBRANCH   8  10
ENDBRANCH   5   6
BRANCH   5  18
ATOM     18  CB  THR A   3       6.871  -4.218 -11.240  0.00  0.00    +0.141 C 
ATOM     19  CG2 THR A   3       6.821  -4.419  -9.731  0.00  0.00    +0.040 C 
BRANCH  18  20
ATOM     20  OG1 THR A   3       7.556  -5.336 -11.834  0.00  0.00    -0.390 OA
ATOM     21  H   THR A   3       7.741  -5.967 -11.112  0.00  0.00    +0.210 HD
ENDBRANCH  18  20
ENDBRANCH   5  18
ENDBRANCH   3   5
BRANCH   1  22
ATOM     22  CA  ASP A   2       2.512  -5.551  -9.982  0.00  0.00    +0.175 C 
BRANCH  22  25
ATOM     23  C   LEU A   1       1.982  -4.981  -7.670  0.00  0.00    +0.199 C 
ATOM     24  O   LEU A   1       3.062  -5.407  -7.316  0.00  0.00    -0.278 OA
ATOM     25  N   ASP A   2       1.570  -4.964  -8.996  0.00  0.00    -0.304 N 
ATOM     26  H   ASP A   2       0.698  -5.494  -9.098  0.00  0.00    +0.149 HD
BRANCH  23  27
ATOM     27  CA  LEU A   1       0.968  -4.384  -6.685  0.00  0.00    +0.013 C 
BRANCH  27  28
ATOM     28  N   LEU A   1       1.050  -2.879  -6.701  0.00  0.00    +0.386 N 
ATOM     29  H   LEU A   1       1.131  -2.575  -7.681  0.00  0.00    -0.089 HD
ATOM     30  H   LEU A   1       1.853  -2.518  -6.179  0.00  0.00    -0.089 HD
ATOM     31  H   LEU A   1       0.175  -2.482  -6.338  0.00  0.00    -0.089 HD
ENDBRANCH  27  28
BRANCH  27  32
ATOM     32  CB  LEU A   1      -0.454  -4.828  -7.026  0.00  0.00    -0.004 C 
BRANCH  32  33
ATOM     33  CG  LEU A   1      -1.515  -4.526  -5.949  0.00  0.00    -0.018 C 
ATOM     34  CD1 LEU A   1      -2.729  -3.864  -6.604  0.00  0.00    +0.007 C 
ATOM     35  CD2 LEU A   1      -1.960  -5.781  -5.194  0.00  0.00    +0.007 C 
ENDBRANCH  32  33
ENDBRANCH  27  32
ENDBRANCH  23  27
ENDBRANCH  22  25
BRANCH  22  36
ATOM     36  CB  ASP A   2       1.723  -6.250 -11.079  0.00  0.00    +0.189 C 
BRANCH  36  37
ATOM     37  CG  ASP A   2       1.620  -7.747 -10.819  0.00  0.00    +0.236 C 
ATOM     38  OD1 ASP A   2       1.520  -8.477 -11.852  0.00  0.00    -0.205 OA
ATOM     39  OD2 ASP A   2       1.820  -8.090  -9.624  0.00  0.00    -0.205 OA
ENDBRANCH  36  37
ENDBRANCH  22  36
ENDBRANCH   1  22
TORSDOF 16
ENDMDL
MODEL 5
REMARK VINA RESULT:      -6.4      4.613      8.680
REMARK  Name = LDTT_min.pdb
REMARK  20 active torsions:
REMARK  status: ('A' for Active; 'I' for Inactive)
REMARK    1  A    between atoms: N_1  and  CA_2
REMARK    2  A    between atoms: CA_2  and  C_3
REMARK    3  A    between atoms: CA_2  and  CB_5
REMARK    4  A    between atoms: CB_5  and  CG_6
REMARK    5  A    between atoms: CG_6  and  CD1_7
REMARK    6  A    between atoms: CG_6  and  CD2_8
REMARK    7  A    between atoms: N_9  and  CA_10
REMARK    8  A    between atoms: CA_10  and  C_11
REMARK    9  A    between atoms: CA_10  and  CB_13
REMARK   10  A    between atoms: CB_13  and  CG_14
REMARK   11  A    between atoms: N_17  and  CA_18
REMARK   12  A    between atoms: CA_18  and  C_19
REMARK   13  A    between atoms: CA_18  and  CB_21
REMARK   14  A    between atoms: CB_21  and  OG1_22
REMARK   15  A    between atoms: CB_21  and  CG2_23
REMARK   16  A    between atoms: N_24  and  CA_25
REMARK   17  A    between atoms: CA_25  and  C_26
REMARK   18  A    between atoms: CA_25  and  CB_29
REMARK   19  A    between atoms: CB_29  and  OG1_30
REMARK   20  A    between atoms: CB_29  and  CG2_31
REMARK                            x       y       z     vdW  Elec       q    Type
REMARK                         _______ _______ _______ _____ _____    ______ ____
ROOT
ATOM      1  C   ASP A   2       5.611  -4.060 -13.003  0.00  0.00    +0.235 C 
ATOM      2  O   ASP A   2       5.423  -2.852 -13.105  0.00  0.00    -0.274 OA
ATOM      3  N   THR A   3       4.629  -4.916 -12.521  0.00  0.00    -0.300 N 
ATOM      4  H   THR A   3       4.556  -5.783 -13.037  0.00  0.00    +0.150 HD
ENDROOT
BRANCH   3   5
ATOM      5  CA  THR A   3       3.377  -4.358 -11.991  0.00  0.00    +0.187 C 
BRANCH   5   6
ATOM      6  C   THR A   3       3.524  -3.961 -10.511  0.00  0.00    +0.237 C 
ATOM      7  O   THR A   3       2.845  -3.070 -10.012  0.00  0.00    -0.274 OA
ATOM      8  N   THR A   4       4.236  -4.897  -9.780  0.00  0.00    -0.294 N 
ATOM      9  H   THR A   4       5.095  -5.169 -10.251  0.00  0.00    +0.150 HD
BRANCH   8  10
ATOM     10  CA  THR A   4       4.432  -4.700  -8.335  0.00  0.00    +0.241 C 
BRANCH  10  11
ATOM     11  C   THR A   4       5.829  -5.125  -7.809  0.00  0.00    +0.257 C 
ATOM     12  O   THR A   4       5.854  -6.149  -7.074  0.00  0.00    -0.203 OA
ATOM     13  OXT THR A   4       6.782  -4.437  -8.286  0.00  0.00    -0.203 OA
ENDBRANCH  10  11
BRANCH  10  14
ATOM     14  CB  THR A   4       3.476  -5.613  -7.540  0.00  0.00    +0.149 C 
ATOM     15  CG2 THR A   4       2.219  -4.876  -7.095  0.00  0.00    +0.041 C 
BRANCH  14  16
ATOM     16  OG1 THR A   4       2.987  -6.700  -8.347  0.00  0.00    -0.389 OA
ATOM     17  H   THR A   4       2.481  -6.259  -9.090  0.00  0.00    +0.210 HD
ENDBRANCH  14  16
ENDBRANCH  10  14
ENDBRANCH   8  10
ENDBRANCH   5   6
BRANCH   5  18
ATOM     18  CB  THR A   3       2.270  -5.438 -12.057  0.00  0.00    +0.141 C 
ATOM     19  CG2 THR A   3       2.773  -6.827 -12.429  0.00  0.00    +0.040 C 
BRANCH  18  20
ATOM     20  OG1 THR A   3       1.595  -5.513 -10.788  0.00  0.00    -0.390 OA
ATOM     21  H   THR A   3       1.910  -6.327 -10.351  0.00  0.00    +0.210 HD
ENDBRANCH  18  20
ENDBRANCH   5  18
ENDBRANCH   3   5
BRANCH   1  22
ATOM     22  CA  ASP A   2       6.858  -4.773 -13.568  0.00  0.00    +0.175 C 
BRANCH  22  25
ATOM     23  C   LEU A   1       7.342  -4.049 -15.848  0.00  0.00    +0.199 C 
ATOM     24  O   LEU A   1       6.497  -4.811 -16.270  0.00  0.00    -0.278 OA
ATOM     25  N   ASP A   2       7.622  -3.900 -14.495  0.00  0.00    -0.304 N 
ATOM     26  H   ASP A   2       8.611  -4.107 -14.319  0.00  0.00    +0.149 HD
BRANCH  23  27
ATOM     27  CA  LEU A   1       8.171  -3.143 -16.768  0.00  0.00    +0.013 C 
BRANCH  27  28
ATOM     28  N   LEU A   1       7.729  -3.312 -18.200  0.00  0.00    +0.386 N 
ATOM     29  H   LEU A   1       6.765  -2.958 -18.279  0.00  0.00    -0.089 HD
ATOM     30  H   LEU A   1       7.747  -4.286 -18.510  0.00  0.00    -0.089 HD
ATOM     31  H   LEU A   1       8.311  -2.725 -18.810  0.00  0.00    -0.089 HD
ENDBRANCH  27  28
BRANCH  27  32
ATOM     32  CB  LEU A   1       8.042  -1.678 -16.356  0.00  0.00    -0.004 C 
BRANCH  32  33
ATOM     33  CG  LEU A   1       9.375  -0.938 -16.128  0.00  0.00    -0.018 C 
ATOM     34  CD1 LEU A   1       9.215   0.530 -16.532  0.00  0.00    +0.007 C 
ATOM     35  CD2 LEU A   1       9.852  -1.020 -14.676  0.00  0.00    +0.007 C 
ENDBRANCH  32  33
ENDBRANCH  27  32
ENDBRANCH  23  27
ENDBRANCH  22  25
BRANCH  22  36
ATOM     36  CB  ASP A   2       7.752  -5.179 -12.407  0.00  0.00    +0.189 C 
BRANCH  36  37
ATOM     37  CG  ASP A   2       9.190  -4.727 -12.629  0.00  0.00    +0.236 C 
ATOM     38  OD1 ASP A   2       9.877  -5.450 -13.413  0.00  0.00    -0.205 OA
ATOM     39  OD2 ASP A   2       9.468  -3.599 -12.145  0.00  0.00    -0.205 OA
ENDBRANCH  36  37
ENDBRANCH  22  36
ENDBRANCH   1  22
TORSDOF 16
ENDMDL
MODEL 6
REMARK VINA RESULT:      -6.4      4.282      7.996
REMARK  Name = LDTT_min.pdb
REMARK  20 active torsions:
REMARK  status: ('A' for Active; 'I' for Inactive)
REMARK    1  A    between atoms: N_1  and  CA_2
REMARK    2  A    between atoms: CA_2  and  C_3
REMARK    3  A    between atoms: CA_2  and  CB_5
REMARK    4  A    between atoms: CB_5  and  CG_6
REMARK    5  A    between atoms: CG_6  and  CD1_7
REMARK    6  A    between atoms: CG_6  and  CD2_8
REMARK    7  A    between atoms: N_9  and  CA_10
REMARK    8  A    between atoms: CA_10  and  C_11
REMARK    9  A    between atoms: CA_10  and  CB_13
REMARK   10  A    between atoms: CB_13  and  CG_14
REMARK   11  A    between atoms: N_17  and  CA_18
REMARK   12  A    between atoms: CA_18  and  C_19
REMARK   13  A    between atoms: CA_18  and  CB_21
REMARK   14  A    between atoms: CB_21  and  OG1_22
REMARK   15  A    between atoms: CB_21  and  CG2_23
REMARK   16  A    between atoms: N_24  and  CA_25
REMARK   17  A    between atoms: CA_25  and  C_26
REMARK   18  A    between atoms: CA_25  and  CB_29
REMARK   19  A    between atoms: CB_29  and  OG1_30
REMARK   20  A    between atoms: CB_29  and  CG2_31
REMARK                            x       y       z     vdW  Elec       q    Type
REMARK                         _______ _______ _______ _____ _____    ______ ____
ROOT
ATOM      1  C   ASP A   2       4.847  -4.311 -12.251  0.00  0.00    +0.235 C 
ATOM      2  O   ASP A   2       4.421  -3.167 -12.118  0.00  0.00    -0.274 OA
ATOM      3  N   THR A   3       3.996  -5.399 -12.389  0.00  0.00    -0.300 N 
ATOM      4  H   THR A   3       4.296  -6.064 -13.089  0.00  0.00    +0.150 HD
ENDROOT
BRANCH   3   5
ATOM      5  CA  THR A   3       2.545  -5.208 -12.241  0.00  0.00    +0.187 C 
BRANCH   5   6
ATOM      6  C   THR A   3       2.096  -5.444 -10.789  0.00  0.00    +0.237 C 
ATOM      7  O   THR A   3       1.675  -6.534 -10.413  0.00  0.00    -0.274 OA
ATOM      8  N   THR A   4       2.511  -4.436  -9.935  0.00  0.00    -0.294 N 
ATOM      9  H   THR A   4       2.309  -3.515 -10.314  0.00  0.00    +0.150 HD
BRANCH   8  10
ATOM     10  CA  THR A   4       2.207  -4.525  -8.497  0.00  0.00    +0.241 C 
BRANCH  10  11
ATOM     11  C   THR A   4       1.784  -3.182  -7.843  0.00  0.00    +0.257 C 
ATOM     12  O   THR A   4       0.900  -3.259  -6.947  0.00  0.00    -0.203 OA
ATOM     13  OXT THR A   4       2.473  -2.189  -8.231  0.00  0.00    -0.203 OA
ENDBRANCH  10  11
BRANCH  10  14
ATOM     14  CB  THR A   4       3.478  -4.902  -7.709  0.00  0.00    +0.149 C 
ATOM     15  CG2 THR A   4       3.676  -6.411  -7.631  0.00  0.00    +0.041 C 
BRANCH  14  16
ATOM     16  OG1 THR A   4       4.669  -4.418  -8.357  0.00  0.00    -0.389 OA
ATOM     17  H   THR A   4       4.880  -3.557  -7.892  0.00  0.00    +0.210 HD
ENDBRANCH  14  16
ENDBRANCH  10  14
ENDBRANCH   8  10
ENDBRANCH   5   6
BRANCH   5  18
ATOM     18  CB  THR A   3       1.804  -6.250 -13.115  0.00  0.00    +0.141 C 
ATOM     19  CG2 THR A   3       1.772  -5.912 -14.599  0.00  0.00    +0.040 C 
BRANCH  18  20
ATOM     20  OG1 THR A   3       2.415  -7.542 -12.946  0.00  0.00    -0.390 OA
ATOM     21  H   THR A   3       3.217  -7.403 -12.407  0.00  0.00    +0.210 HD
ENDBRANCH  18  20
ENDBRANCH   5  18
ENDBRANCH   3   5
BRANCH   1  22
ATOM     22  CA  ASP A   2       6.340  -4.637 -12.469  0.00  0.00    +0.175 C 
BRANCH  22  25
ATOM     23  C   LEU A   1       8.052  -3.425 -13.717  0.00  0.00    +0.199 C 
ATOM     24  O   LEU A   1       8.157  -4.360 -14.483  0.00  0.00    -0.278 OA
ATOM     25  N   ASP A   2       7.153  -3.408 -12.658  0.00  0.00    -0.304 N 
ATOM     26  H   ASP A   2       7.656  -3.271 -11.775  0.00  0.00    +0.149 HD
BRANCH  23  27
ATOM     27  CA  LEU A   1       8.884  -2.144 -13.859  0.00  0.00    +0.013 C 
BRANCH  27  28
ATOM     28  N   LEU A   1       9.759  -1.954 -12.646  0.00  0.00    +0.386 N 
ATOM     29  H   LEU A   1       9.724  -2.819 -12.089  0.00  0.00    -0.089 HD
ATOM     30  H   LEU A   1       9.459  -1.173 -12.057  0.00  0.00    -0.089 HD
ATOM     31  H   LEU A   1      10.735  -1.831 -12.942  0.00  0.00    -0.089 HD
ENDBRANCH  27  28
BRANCH  27  32
ATOM     32  CB  LEU A   1       9.748  -2.188 -15.118  0.00  0.00    -0.004 C 
BRANCH  32  33
ATOM     33  CG  LEU A   1       9.479  -1.068 -16.143  0.00  0.00    -0.018 C 
ATOM     34  CD1 LEU A   1       8.136  -1.324 -16.832  0.00  0.00    +0.007 C 
ATOM     35  CD2 LEU A   1       9.470   0.323 -15.504  0.00  0.00    +0.007 C 
ENDBRANCH  32  33
ENDBRANCH  27  32
ENDBRANCH  23  27
ENDBRANCH  22  25
BRANCH  22  36
ATOM     36  CB  ASP A   2       6.853  -5.398 -11.256  0.00  0.00    +0.189 C 
BRANCH  36  37
ATOM     37  CG  ASP A   2       7.724  -4.513 -10.374  0.00  0.00    +0.236 C 
ATOM     38  OD1 ASP A   2       7.136  -3.975  -9.387  0.00  0.00    -0.205 OA
ATOM     39  OD2 ASP A   2       8.955  -4.562 -10.631  0.00  0.00    -0.205 OA
ENDBRANCH  36  37
ENDBRANCH  22  36
ENDBRANCH   1  22
TORSDOF 16
ENDMDL
MODEL 7
REMARK VINA RESULT:      -6.3      3.150      6.458
REMARK  Name = LDTT_min.pdb
REMARK  20 active torsions:
REMARK  status: ('A' for Active; 'I' for Inactive)
REMARK    1  A    between atoms: N_1  and  CA_2
REMARK    2  A    between atoms: CA_2  and  C_3
REMARK    3  A    between atoms: CA_2  and  CB_5
REMARK    4  A    between atoms: CB_5  and  CG_6
REMARK    5  A    between atoms: CG_6  and  CD1_7
REMARK    6  A    between atoms: CG_6  and  CD2_8
REMARK    7  A    between atoms: N_9  and  CA_10
REMARK    8  A    between atoms: CA_10  and  C_11
REMARK    9  A    between atoms: CA_10  and  CB_13
REMARK   10  A    between atoms: CB_13  and  CG_14
REMARK   11  A    between atoms: N_17  and  CA_18
REMARK   12  A    between atoms: CA_18  and  C_19
REMARK   13  A    between atoms: CA_18  and  CB_21
REMARK   14  A    between atoms: CB_21  and  OG1_22
REMARK   15  A    between atoms: CB_21  and  CG2_23
REMARK   16  A    between atoms: N_24  and  CA_25
REMARK   17  A    between atoms: CA_25  and  C_26
REMARK   18  A    between atoms: CA_25  and  CB_29
REMARK   19  A    between atoms: CB_29  and  OG1_30
REMARK   20  A    between atoms: CB_29  and  CG2_31
REMARK                            x       y       z     vdW  Elec       q    Type
REMARK                         _______ _______ _______ _____ _____    ______ ____
ROOT
ATOM      1  C   ASP A   2       2.611  -5.191  -6.970  0.00  0.00    +0.235 C 
ATOM      2  O   ASP A   2       2.783  -4.990  -5.772  0.00  0.00    -0.274 OA
ATOM      3  N   THR A   3       3.319  -6.166  -7.659  0.00  0.00    -0.300 N 
ATOM      4  H   THR A   3       2.754  -6.698  -8.308  0.00  0.00    +0.150 HD
ENDROOT
BRANCH   3   5
ATOM      5  CA  THR A   3       4.400  -6.894  -6.979  0.00  0.00    +0.187 C 
BRANCH   5   6
ATOM      6  C   THR A   3       5.737  -6.735  -7.725  0.00  0.00    +0.237 C 
ATOM      7  O   THR A   3       6.806  -7.037  -7.204  0.00  0.00    -0.274 OA
ATOM      8  N   THR A   4       5.564  -6.536  -9.084  0.00  0.00    -0.294 N 
ATOM      9  H   THR A   4       4.866  -5.822  -9.275  0.00  0.00    +0.150 HD
BRANCH   8  10
ATOM     10  CA  THR A   4       6.741  -6.410  -9.960  0.00  0.00    +0.241 C 
BRANCH  10  11
ATOM     11  C   THR A   4       7.205  -4.950 -10.212  0.00  0.00    +0.257 C 
ATOM     12  O   THR A   4       8.381  -4.812 -10.644  0.00  0.00    -0.203 OA
ATOM     13  OXT THR A   4       6.286  -4.091 -10.049  0.00  0.00    -0.203 OA
ENDBRANCH  10  11
BRANCH  10  14
ATOM     14  CB  THR A   4       6.402  -6.911 -11.379  0.00  0.00    +0.149 C 
ATOM     15  CG2 THR A   4       5.178  -7.818 -11.388  0.00  0.00    +0.041 C 
BRANCH  14  16
ATOM     16  OG1 THR A   4       6.048  -5.825 -12.255  0.00  0.00    -0.389 OA
ATOM     17  H   THR A   4       6.841  -5.213 -12.236  0.00  0.00    +0.210 HD
ENDBRANCH  14  16
ENDBRANCH  10  14
ENDBRANCH   8  10
ENDBRANCH   5   6
BRANCH   5  18
ATOM     18  CB  THR A   3       4.069  -8.407  -6.970  0.00  0.00    +0.141 C 
ATOM     19  CG2 THR A   3       2.772  -8.767  -7.683  0.00  0.00    +0.040 C 
BRANCH  18  20
ATOM     20  OG1 THR A   3       5.150  -9.139  -7.575  0.00  0.00    -0.390 OA
ATOM     21  H   THR A   3       5.535  -9.700  -6.875  0.00  0.00    +0.210 HD
ENDBRANCH  18  20
ENDBRANCH   5  18
ENDBRANCH   3   5
BRANCH   1  22
ATOM     22  CA  ASP A   2       1.477  -4.531  -7.784  0.00  0.00    +0.175 C 
BRANCH  22  25
ATOM     23  C   LEU A   1       2.418  -3.715  -9.883  0.00  0.00    +0.199 C 
ATOM     24  O   LEU A   1       2.924  -2.782  -9.295  0.00  0.00    -0.278 OA
ATOM     25  N   ASP A   2       1.674  -4.701  -9.246  0.00  0.00    -0.304 N 
ATOM     26  H   ASP A   2       0.732  -4.742  -9.649  0.00  0.00    +0.149 HD
BRANCH  23  27
ATOM     27  CA  LEU A   1       2.576  -3.921 -11.395  0.00  0.00    +0.013 C 
BRANCH  27  28
ATOM     28  N   LEU A   1       3.953  -3.493 -11.837  0.00  0.00    +0.386 N 
ATOM     29  H   LEU A   1       3.981  -2.464 -11.838  0.00  0.00    -0.089 HD
ATOM     30  H   LEU A   1       4.192  -3.827 -12.774  0.00  0.00    -0.089 HD
ATOM     31  H   LEU A   1       4.649  -3.808 -11.151  0.00  0.00    -0.089 HD
ENDBRANCH  27  28
BRANCH  27  32
ATOM     32  CB  LEU A   1       2.341  -5.381 -11.778  0.00  0.00    -0.004 C 
BRANCH  32  33
ATOM     33  CG  LEU A   1       1.820  -5.611 -13.210  0.00  0.00    -0.018 C 
ATOM     34  CD1 LEU A   1       2.990  -5.996 -14.119  0.00  0.00    +0.007 C 
ATOM     35  CD2 LEU A   1       0.741  -6.695 -13.277  0.00  0.00    +0.007 C 
ENDBRANCH  32  33
ENDBRANCH  27  32
ENDBRANCH  23  27
ENDBRANCH  22  25
BRANCH  22  36
ATOM     36  CB  ASP A   2       0.155  -5.164  -7.377  0.00  0.00    +0.189 C 
BRANCH  36  37
ATOM     37  CG  ASP A   2      -0.646  -4.240  -6.469  0.00  0.00    +0.236 C 
ATOM     38  OD1 ASP A   2      -0.761  -3.042  -6.870  0.00  0.00    -0.205 OA
ATOM     39  OD2 ASP A   2      -1.239  -4.818  -5.521  0.00  0.00    -0.205 OA
ENDBRANCH  36  37
ENDBRANCH  22  36
ENDBRANCH   1  22
TORSDOF 16
ENDMDL
MODEL 8
REMARK VINA RESULT:      -6.3      2.700      5.001
REMARK  Name = LDTT_min.pdb
REMARK  20 active torsions:
REMARK  status: ('A' for Active; 'I' for Inactive)
REMARK    1  A    between atoms: N_1  and  CA_2
REMARK    2  A    between atoms: CA_2  and  C_3
REMARK    3  A    between atoms: CA_2  and  CB_5
REMARK    4  A    between atoms: CB_5  and  CG_6
REMARK    5  A    between atoms: CG_6  and  CD1_7
REMARK    6  A    between atoms: CG_6  and  CD2_8
REMARK    7  A    between atoms: N_9  and  CA_10
REMARK    8  A    between atoms: CA_10  and  C_11
REMARK    9  A    between atoms: CA_10  and  CB_13
REMARK   10  A    between atoms: CB_13  and  CG_14
REMARK   11  A    between atoms: N_17  and  CA_18
REMARK   12  A    between atoms: CA_18  and  C_19
REMARK   13  A    between atoms: CA_18  and  CB_21
REMARK   14  A    between atoms: CB_21  and  OG1_22
REMARK   15  A    between atoms: CB_21  and  CG2_23
REMARK   16  A    between atoms: N_24  and  CA_25
REMARK   17  A    between atoms: CA_25  and  C_26
REMARK   18  A    between atoms: CA_25  and  CB_29
REMARK   19  A    between atoms: CB_29  and  OG1_30
REMARK   20  A    between atoms: CB_29  and  CG2_31
REMARK                            x       y       z     vdW  Elec       q    Type
REMARK                         _______ _______ _______ _____ _____    ______ ____
ROOT
ATOM      1  C   ASP A   2       3.769  -6.336  -8.914  0.00  0.00    +0.235 C 
ATOM      2  O   ASP A   2       3.264  -7.449  -9.023  0.00  0.00    -0.274 OA
ATOM      3  N   THR A   3       3.927  -5.493 -10.007  0.00  0.00    -0.300 N 
ATOM      4  H   THR A   3       3.699  -4.527  -9.812  0.00  0.00    +0.150 HD
ENDROOT
BRANCH   3   5
ATOM      5  CA  THR A   3       3.609  -5.986 -11.355  0.00  0.00    +0.187 C 
BRANCH   5   6
ATOM      6  C   THR A   3       4.844  -5.943 -12.271  0.00  0.00    +0.237 C 
ATOM      7  O   THR A   3       4.811  -6.377 -13.419  0.00  0.00    -0.274 OA
ATOM      8  N   THR A   4       5.836  -5.108 -11.785  0.00  0.00    -0.294 N 
ATOM      9  H   THR A   4       6.024  -5.280 -10.801  0.00  0.00    +0.150 HD
BRANCH   8  10
ATOM     10  CA  THR A   4       7.071  -4.912 -12.562  0.00  0.00    +0.241 C 
BRANCH  10  11
ATOM     11  C   THR A   4       8.353  -4.741 -11.702  0.00  0.00    +0.257 C 
ATOM     12  O   THR A   4       9.009  -3.682 -11.895  0.00  0.00    -0.203 OA
ATOM     13  OXT THR A   4       8.508  -5.654 -10.835  0.00  0.00    -0.203 OA
ENDBRANCH  10  11
BRANCH  10  14
ATOM     14  CB  THR A   4       7.003  -3.583 -13.341  0.00  0.00    +0.149 C 
ATOM     15  CG2 THR A   4       6.942  -3.805 -14.847  0.00  0.00    +0.041 C 
BRANCH  14  16
ATOM     16  OG1 THR A   4       5.801  -2.851 -13.038  0.00  0.00    -0.389 OA
ATOM     17  H   THR A   4       5.079  -3.323 -13.547  0.00  0.00    +0.210 HD
ENDBRANCH  14  16
ENDBRANCH  10  14
ENDBRANCH   8  10
ENDBRANCH   5   6
BRANCH   5  18
ATOM     18  CB  THR A   3       2.543  -5.063 -11.995  0.00  0.00    +0.141 C 
ATOM     19  CG2 THR A   3       1.327  -5.797 -12.542  0.00  0.00    +0.040 C 
BRANCH  18  20
ATOM     20  OG1 THR A   3       2.103  -4.092 -11.027  0.00  0.00    -0.390 OA
ATOM     21  H   THR A   3       2.847  -3.474 -10.892  0.00  0.00    +0.210 HD
ENDBRANCH  18  20
ENDBRANCH   5  18
ENDBRANCH   3   5
BRANCH   1  22
ATOM     22  CA  ASP A   2       4.098  -5.686  -7.553  0.00  0.00    +0.175 C 
BRANCH  22  25
ATOM     23  C   LEU A   1       2.167  -4.223  -7.263  0.00  0.00    +0.199 C 
ATOM     24  O   LEU A   1       2.493  -3.595  -8.249  0.00  0.00    -0.278 OA
ATOM     25  N   ASP A   2       2.870  -5.328  -6.800  0.00  0.00    -0.304 N 
ATOM     26  H   ASP A   2       3.175  -5.167  -5.833  0.00  0.00    +0.149 HD
BRANCH  23  27
ATOM     27  CA  LEU A   1       0.919  -3.878  -6.441  0.00  0.00    +0.013 C 
BRANCH  27  28
ATOM     28  N   LEU A   1       0.612  -2.406  -6.552  0.00  0.00    +0.386 N 
ATOM     29  H   LEU A   1       0.254  -2.226  -7.501  0.00  0.00    -0.089 HD
ATOM     30  H   LEU A   1       1.432  -1.815  -6.395  0.00  0.00    -0.089 HD
ATOM     31  H   LEU A   1      -0.142  -2.161  -5.899  0.00  0.00    -0.089 HD
ENDBRANCH  27  28
BRANCH  27  32
ATOM     32  CB  LEU A   1      -0.287  -4.693  -6.904  0.00  0.00    -0.004 C 
BRANCH  32  33
ATOM     33  CG  LEU A   1      -1.542  -4.577  -6.016  0.00  0.00    -0.018 C 
ATOM     34  CD1 LEU A   1      -2.708  -4.048  -6.855  0.00  0.00    +0.007 C 
ATOM     35  CD2 LEU A   1      -1.935  -5.910  -5.375  0.00  0.00    +0.007 C 
ENDBRANCH  32  33
ENDBRANCH  27  32
ENDBRANCH  23  27
ENDBRANCH  22  25
BRANCH  22  36
ATOM     36  CB  ASP A   2       4.924  -6.666  -6.735  0.00  0.00    +0.189 C 
BRANCH  36  37
ATOM     37  CG  ASP A   2       6.416  -6.457  -6.959  0.00  0.00    +0.236 C 
ATOM     38  OD1 ASP A   2       7.025  -7.416  -7.522  0.00  0.00    -0.205 OA
ATOM     39  OD2 ASP A   2       6.827  -5.292  -6.714  0.00  0.00    -0.205 OA
ENDBRANCH  36  37
ENDBRANCH  22  36
ENDBRANCH   1  22
TORSDOF 16
ENDMDL
MODEL 9
REMARK VINA RESULT:      -6.3      1.955      2.995
REMARK  Name = LDTT_min.pdb
REMARK  20 active torsions:
REMARK  status: ('A' for Active; 'I' for Inactive)
REMARK    1  A    between atoms: N_1  and  CA_2
REMARK    2  A    between atoms: CA_2  and  C_3
REMARK    3  A    between atoms: CA_2  and  CB_5
REMARK    4  A    between atoms: CB_5  and  CG_6
REMARK    5  A    between atoms: CG_6  and  CD1_7
REMARK    6  A    between atoms: CG_6  and  CD2_8
REMARK    7  A    between atoms: N_9  and  CA_10
REMARK    8  A    between atoms: CA_10  and  C_11
REMARK    9  A    between atoms: CA_10  and  CB_13
REMARK   10  A    between atoms: CB_13  and  CG_14
REMARK   11  A    between atoms: N_17  and  CA_18
REMARK   12  A    between atoms: CA_18  and  C_19
REMARK   13  A    between atoms: CA_18  and  CB_21
REMARK   14  A    between atoms: CB_21  and  OG1_22
REMARK   15  A    between atoms: CB_21  and  CG2_23
REMARK   16  A    between atoms: N_24  and  CA_25
REMARK   17  A    between atoms: CA_25  and  C_26
REMARK   18  A    between atoms: CA_25  and  CB_29
REMARK   19  A    between atoms: CB_29  and  OG1_30
REMARK   20  A    between atoms: CB_29  and  CG2_31
REMARK                            x       y       z     vdW  Elec       q    Type
REMARK                         _______ _______ _______ _____ _____    ______ ____
ROOT
ATOM      1  C   ASP A   2       3.897  -4.670 -11.213  0.00  0.00    +0.235 C 
ATOM      2  O   ASP A   2       2.794  -4.384 -11.669  0.00  0.00    -0.274 OA
ATOM      3  N   THR A   3       4.937  -5.102 -12.026  0.00  0.00    -0.300 N 
ATOM      4  H   THR A   3       5.833  -4.698 -11.789  0.00  0.00    +0.150 HD
ENDROOT
BRANCH   3   5
ATOM      5  CA  THR A   3       4.685  -5.356 -13.451  0.00  0.00    +0.187 C 
BRANCH   5   6
ATOM      6  C   THR A   3       4.212  -6.801 -13.687  0.00  0.00    +0.237 C 
ATOM      7  O   THR A   3       4.929  -7.764 -13.434  0.00  0.00    -0.274 OA
ATOM      8  N   THR A   4       2.845  -6.884 -13.892  0.00  0.00    -0.294 N 
ATOM      9  H   THR A   4       2.524  -6.200 -14.572  0.00  0.00    +0.150 HD
BRANCH   8  10
ATOM     10  CA  THR A   4       2.214  -8.200 -14.088  0.00  0.00    +0.241 C 
BRANCH  10  11
ATOM     11  C   THR A   4       1.574  -8.407 -15.486  0.00  0.00    +0.257 C 
ATOM     12  O   THR A   4       1.327  -9.601 -15.809  0.00  0.00    -0.203 OA
ATOM     13  OXT THR A   4       1.283  -7.323 -16.077  0.00  0.00    -0.203 OA
ENDBRANCH  10  11
BRANCH  10  14
ATOM     14  CB  THR A   4       1.011  -8.358 -13.135  0.00  0.00    +0.149 C 
ATOM     15  CG2 THR A   4       1.063  -7.365 -11.979  0.00  0.00    +0.041 C 
BRANCH  14  16
ATOM     16  OG1 THR A   4      -0.233  -8.070 -13.798  0.00  0.00    -0.389 OA
ATOM     17  H   THR A   4      -0.887  -8.722 -13.408  0.00  0.00    +0.210 HD
ENDBRANCH  14  16
ENDBRANCH  10  14
ENDBRANCH   8  10
ENDBRANCH   5   6
BRANCH   5  18
ATOM     18  CB  THR A   3       6.006  -5.182 -14.240  0.00  0.00    +0.141 C 
ATOM     19  CG2 THR A   3       6.483  -3.741 -14.352  0.00  0.00    +0.040 C 
BRANCH  18  20
ATOM     20  OG1 THR A   3       7.042  -5.968 -13.621  0.00  0.00    -0.390 OA
ATOM     21  H   THR A   3       7.757  -6.057 -14.280  0.00  0.00    +0.210 HD
ENDBRANCH  18  20
ENDBRANCH   5  18
ENDBRANCH   3   5
BRANCH   1  22
ATOM     22  CA  ASP A   2       4.302  -4.401  -9.747  0.00  0.00    +0.175 C 
BRANCH  22  25
ATOM     23  C   LEU A   1       2.423  -3.903  -8.272  0.00  0.00    +0.199 C 
ATOM     24  O   LEU A   1       2.477  -2.735  -8.595  0.00  0.00    -0.278 OA
ATOM     25  N   ASP A   2       3.268  -4.875  -8.792  0.00  0.00    -0.304 N 
ATOM     26  H   ASP A   2       3.783  -5.333  -8.032  0.00  0.00    +0.149 HD
BRANCH  23  27
ATOM     27  CA  LEU A   1       1.386  -4.436  -7.274  0.00  0.00    +0.013 C 
BRANCH  27  28
ATOM     28  N   LEU A   1       2.059  -4.824  -5.982  0.00  0.00    +0.386 N 
ATOM     29  H   LEU A   1       1.661  -4.246  -5.230  0.00  0.00    -0.089 HD
ATOM     30  H   LEU A   1       3.072  -4.684  -6.002  0.00  0.00    -0.089 HD
ATOM     31  H   LEU A   1       1.833  -5.801  -5.757  0.00  0.00    -0.089 HD
ENDBRANCH  27  28
BRANCH  27  32
ATOM     32  CB  LEU A   1       0.302  -3.394  -7.000  0.00  0.00    -0.004 C 
BRANCH  32  33
ATOM     33  CG  LEU A   1      -1.145  -3.923  -7.042  0.00  0.00    -0.018 C 
ATOM     34  CD1 LEU A   1      -1.364  -4.895  -5.880  0.00  0.00    +0.007 C 
ATOM     35  CD2 LEU A   1      -2.184  -2.800  -6.974  0.00  0.00    +0.007 C 
ENDBRANCH  32  33
ENDBRANCH  27  32
ENDBRANCH  23  27
ENDBRANCH  22  25
BRANCH  22  36
ATOM     36  CB  ASP A   2       5.613  -5.119  -9.467  0.00  0.00    +0.189 C 
BRANCH  36  37
ATOM     37  CG  ASP A   2       5.896  -5.193  -7.972  0.00  0.00    +0.236 C 
ATOM     38  OD1 ASP A   2       5.318  -6.134  -7.350  0.00  0.00    -0.205 OA
ATOM     39  OD2 ASP A   2       6.802  -4.417  -7.569  0.00  0.00    -0.205 OA
ENDBRANCH  36  37
ENDBRANCH  22  36
ENDBRANCH   1  22
TORSDOF 16
ENDMDL
MODEL 10
REMARK VINA RESULT:      -6.2      4.314      8.575
REMARK  Name = LDTT_min.pdb
REMARK  20 active torsions:
REMARK  status: ('A' for Active; 'I' for Inactive)
REMARK    1  A    between atoms: N_1  and  CA_2
REMARK    2  A    between atoms: CA_2  and  C_3
REMARK    3  A    between atoms: CA_2  and  CB_5
REMARK    4  A    between atoms: CB_5  and  CG_6
REMARK    5  A    between atoms: CG_6  and  CD1_7
REMARK    6  A    between atoms: CG_6  and  CD2_8
REMARK    7  A    between atoms: N_9  and  CA_10
REMARK    8  A    between atoms: CA_10  and  C_11
REMARK    9  A    between atoms: CA_10  and  CB_13
REMARK   10  A    between atoms: CB_13  and  CG_14
REMARK   11  A    between atoms: N_17  and  CA_18
REMARK   12  A    between atoms: CA_18  and  C_19
REMARK   13  A    between atoms: CA_18  and  CB_21
REMARK   14  A    between atoms: CB_21  and  OG1_22
REMARK   15  A    between atoms: CB_21  and  CG2_23
REMARK   16  A    between atoms: N_24  and  CA_25
REMARK   17  A    between atoms: CA_25  and  C_26
REMARK   18  A    between atoms: CA_25  and  CB_29
REMARK   19  A    between atoms: CB_29  and  OG1_30
REMARK   20  A    between atoms: CB_29  and  CG2_31
REMARK                            x       y       z     vdW  Elec       q    Type
REMARK                         _______ _______ _______ _____ _____    ______ ____
ROOT
ATOM      1  C   ASP A   2       5.278  -4.687 -13.010  0.00  0.00    +0.235 C 
ATOM      2  O   ASP A   2       5.236  -3.641 -12.370  0.00  0.00    -0.274 OA
ATOM      3  N   THR A   3       4.131  -5.411 -13.307  0.00  0.00    -0.300 N 
ATOM      4  H   THR A   3       4.110  -5.772 -14.252  0.00  0.00    +0.150 HD
ENDROOT
BRANCH   3   5
ATOM      5  CA  THR A   3       2.843  -4.997 -12.732  0.00  0.00    +0.187 C 
BRANCH   5   6
ATOM      6  C   THR A   3       2.726  -5.421 -11.258  0.00  0.00    +0.237 C 
ATOM      7  O   THR A   3       2.782  -6.600 -10.920  0.00  0.00    -0.274 OA
ATOM      8  N   THR A   4       2.874  -4.356 -10.386  0.00  0.00    -0.294 N 
ATOM      9  H   THR A   4       2.303  -3.561 -10.662  0.00  0.00    +0.150 HD
BRANCH   8  10
ATOM     10  CA  THR A   4       2.837  -4.590  -8.933  0.00  0.00    +0.241 C 
BRANCH  10  11
ATOM     11  C   THR A   4       2.209  -3.433  -8.109  0.00  0.00    +0.257 C 
ATOM     12  O   THR A   4       1.588  -3.773  -7.066  0.00  0.00    -0.203 OA
ATOM     13  OXT THR A   4       2.504  -2.280  -8.548  0.00  0.00    -0.203 OA
ENDBRANCH  10  11
BRANCH  10  14
ATOM     14  CB  THR A   4       4.272  -4.669  -8.372  0.00  0.00    +0.149 C 
ATOM     15  CG2 THR A   4       4.647  -6.087  -7.958  0.00  0.00    +0.041 C 
BRANCH  14  16
ATOM     16  OG1 THR A   4       5.251  -4.315  -9.366  0.00  0.00    -0.389 OA
ATOM     17  H   THR A   4       4.720  -4.137 -10.196  0.00  0.00    +0.210 HD
ENDBRANCH  14  16
ENDBRANCH  10  14
ENDBRANCH   8  10
ENDBRANCH   5   6
BRANCH   5  18
ATOM     18  CB  THR A   3       1.695  -5.703 -13.495  0.00  0.00    +0.141 C 
ATOM     19  CG2 THR A   3       2.139  -6.899 -14.327  0.00  0.00    +0.040 C 
BRANCH  18  20
ATOM     20  OG1 THR A   3       0.691  -6.137 -12.558  0.00  0.00    -0.390 OA
ATOM     21  H   THR A   3       0.511  -7.076 -12.756  0.00  0.00    +0.210 HD
ENDBRANCH  18  20
ENDBRANCH   5  18
ENDBRANCH   3   5
BRANCH   1  22
ATOM     22  CA  ASP A   2       6.556  -5.201 -13.708  0.00  0.00    +0.175 C 
BRANCH  22  25
ATOM     23  C   LEU A   1       7.173  -4.625 -15.997  0.00  0.00    +0.199 C 
ATOM     24  O   LEU A   1       6.789  -5.712 -16.375  0.00  0.00    -0.278 OA
ATOM     25  N   ASP A   2       7.095  -4.210 -14.673  0.00  0.00    -0.304 N 
ATOM     26  H   ASP A   2       8.030  -3.968 -14.328  0.00  0.00    +0.149 HD
BRANCH  23  27
ATOM     27  CA  LEU A   1       7.757  -3.577 -16.953  0.00  0.00    +0.013 C 
BRANCH  27  28
ATOM     28  N   LEU A   1       7.370  -3.897 -18.375  0.00  0.00    +0.386 N 
ATOM     29  H   LEU A   1       7.673  -3.113 -18.971  0.00  0.00    -0.089 HD
ATOM     30  H   LEU A   1       6.363  -4.029 -18.495  0.00  0.00    -0.089 HD
ATOM     31  H   LEU A   1       7.885  -4.727 -18.693  0.00  0.00    -0.089 HD
ENDBRANCH  27  28
BRANCH  27  32
ATOM     32  CB  LEU A   1       7.275  -2.173 -16.591  0.00  0.00    -0.004 C 
BRANCH  32  33
ATOM     33  CG  LEU A   1       8.310  -1.048 -16.793  0.00  0.00    -0.018 C 
ATOM     34  CD1 LEU A   1       9.716  -1.652 -16.818  0.00  0.00    +0.007 C 
ATOM     35  CD2 LEU A   1       8.071  -0.253 -18.079  0.00  0.00    +0.007 C 
ENDBRANCH  32  33
ENDBRANCH  27  32
ENDBRANCH  23  27
ENDBRANCH  22  25
BRANCH  22  36
ATOM     36  CB  ASP A   2       7.604  -5.492 -12.645  0.00  0.00    +0.189 C 
BRANCH  36  37
ATOM     37  CG  ASP A   2       8.758  -4.501 -12.719  0.00  0.00    +0.236 C 
ATOM     38  OD1 ASP A   2       8.614  -3.441 -12.038  0.00  0.00    -0.205 OA
ATOM     39  OD2 ASP A   2       9.785  -4.930 -13.308  0.00  0.00    -0.205 OA
ENDBRANCH  36  37
ENDBRANCH  22  36
ENDBRANCH   1  22
TORSDOF 16
ENDMDL
MODEL 11
REMARK VINA RESULT:      -6.2      1.983      3.126
REMARK  Name = LDTT_min.pdb
REMARK  20 active torsions:
REMARK  status: ('A' for Active; 'I' for Inactive)
REMARK    1  A    between atoms: N_1  and  CA_2
REMARK    2  A    between atoms: CA_2  and  C_3
REMARK    3  A    between atoms: CA_2  and  CB_5
REMARK    4  A    between atoms: CB_5  and  CG_6
REMARK    5  A    between atoms: CG_6  and  CD1_7
REMARK    6  A    between atoms: CG_6  and  CD2_8
REMARK    7  A    between atoms: N_9  and  CA_10
REMARK    8  A    between atoms: CA_10  and  C_11
REMARK    9  A    between atoms: CA_10  and  CB_13
REMARK   10  A    between atoms: CB_13  and  CG_14
REMARK   11  A    between atoms: N_17  and  CA_18
REMARK   12  A    between atoms: CA_18  and  C_19
REMARK   13  A    between atoms: CA_18  and  CB_21
REMARK   14  A    between atoms: CB_21  and  OG1_22
REMARK   15  A    between atoms: CB_21  and  CG2_23
REMARK   16  A    between atoms: N_24  and  CA_25
REMARK   17  A    between atoms: CA_25  and  C_26
REMARK   18  A    between atoms: CA_25  and  CB_29
REMARK   19  A    between atoms: CB_29  and  OG1_30
REMARK   20  A    between atoms: CB_29  and  CG2_31
REMARK                            x       y       z     vdW  Elec       q    Type
REMARK                         _______ _______ _______ _____ _____    ______ ____
ROOT
ATOM      1  C   ASP A   2       3.583  -6.192  -9.870  0.00  0.00    +0.235 C 
ATOM      2  O   ASP A   2       3.701  -5.944 -11.067  0.00  0.00    -0.274 OA
ATOM      3  N   THR A   3       3.274  -7.466  -9.413  0.00  0.00    -0.300 N 
ATOM      4  H   THR A   3       3.804  -7.746  -8.599  0.00  0.00    +0.150 HD
ENDROOT
BRANCH   3   5
ATOM      5  CA  THR A   3       2.944  -8.523 -10.380  0.00  0.00    +0.187 C 
BRANCH   5   6
ATOM      6  C   THR A   3       1.721  -8.140 -11.232  0.00  0.00    +0.237 C 
ATOM      7  O   THR A   3       0.772  -7.524 -10.758  0.00  0.00    -0.274 OA
ATOM      8  N   THR A   4       1.958  -8.276 -12.589  0.00  0.00    -0.294 N 
ATOM      9  H   THR A   4       2.385  -9.172 -12.809  0.00  0.00    +0.150 HD
BRANCH   8  10
ATOM     10  CA  THR A   4       0.909  -7.907 -13.555  0.00  0.00    +0.241 C 
BRANCH  10  11
ATOM     11  C   THR A   4       0.078  -9.103 -14.092  0.00  0.00    +0.257 C 
ATOM     12  O   THR A   4      -0.783  -9.576 -13.302  0.00  0.00    -0.203 OA
ATOM     13  OXT THR A   4       0.310  -9.375 -15.310  0.00  0.00    -0.203 OA
ENDBRANCH  10  11
BRANCH  10  14
ATOM     14  CB  THR A   4       1.547  -7.332 -14.836  0.00  0.00    +0.149 C 
ATOM     15  CG2 THR A   4       1.985  -5.883 -14.656  0.00  0.00    +0.041 C 
BRANCH  14  16
ATOM     16  OG1 THR A   4       2.755  -8.030 -15.189  0.00  0.00    -0.389 OA
ATOM     17  H   THR A   4       2.657  -8.234 -16.165  0.00  0.00    +0.210 HD
ENDBRANCH  14  16
ENDBRANCH  10  14
ENDBRANCH   8  10
ENDBRANCH   5   6
BRANCH   5  18
ATOM     18  CB  THR A   3       2.569  -9.815  -9.613  0.00  0.00    +0.141 C 
ATOM     19  CG2 THR A   3       2.445  -9.634  -8.106  0.00  0.00    +0.040 C 
BRANCH  18  20
ATOM     20  OG1 THR A   3       1.326 -10.333 -10.122  0.00  0.00    -0.390 OA
ATOM     21  H   THR A   3       0.618  -9.771  -9.755  0.00  0.00    +0.210 HD
ENDBRANCH  18  20
ENDBRANCH   5  18
ENDBRANCH   3   5
BRANCH   1  22
ATOM     22  CA  ASP A   2       3.949  -5.185  -8.758  0.00  0.00    +0.175 C 
BRANCH  22  25
ATOM     23  C   LEU A   1       2.153  -3.856  -7.778  0.00  0.00    +0.199 C 
ATOM     24  O   LEU A   1       2.361  -2.976  -8.588  0.00  0.00    -0.278 OA
ATOM     25  N   ASP A   2       2.862  -5.050  -7.755  0.00  0.00    -0.304 N 
ATOM     26  H   ASP A   2       3.312  -5.171  -6.841  0.00  0.00    +0.149 HD
BRANCH  23  27
ATOM     27  CA  LEU A   1       1.055  -3.753  -6.711  0.00  0.00    +0.013 C 
BRANCH  27  28
ATOM     28  N   LEU A   1       0.696  -2.308  -6.471  0.00  0.00    +0.386 N 
ATOM     29  H   LEU A   1      -0.298  -2.267  -6.207  0.00  0.00    -0.089 HD
ATOM     30  H   LEU A   1       0.841  -1.719  -7.295  0.00  0.00    -0.089 HD
ATOM     31  H   LEU A   1       1.231  -1.949  -5.671  0.00  0.00    -0.089 HD
ENDBRANCH  27  28
BRANCH  27  32
ATOM     32  CB  LEU A   1      -0.191  -4.532  -7.127  0.00  0.00    -0.004 C 
BRANCH  32  33
ATOM     33  CG  LEU A   1      -1.400  -4.397  -6.180  0.00  0.00    -0.018 C 
ATOM     34  CD1 LEU A   1      -2.590  -3.829  -6.957  0.00  0.00    +0.007 C 
ATOM     35  CD2 LEU A   1      -1.796  -5.728  -5.537  0.00  0.00    +0.007 C 
ENDBRANCH  32  33
ENDBRANCH  27  32
ENDBRANCH  23  27
ENDBRANCH  22  25
BRANCH  22  36
ATOM     36  CB  ASP A   2       5.216  -5.666  -8.067  0.00  0.00    +0.189 C 
BRANCH  36  37
ATOM     37  CG  ASP A   2       6.356  -4.673  -8.246  0.00  0.00    +0.236 C 
ATOM     38  OD1 ASP A   2       6.355  -4.028  -9.338  0.00  0.00    -0.205 OA
ATOM     39  OD2 ASP A   2       7.061  -4.489  -7.219  0.00  0.00    -0.205 OA
ENDBRANCH  36  37
ENDBRANCH  22  36
ENDBRANCH   1  22
TORSDOF 16
ENDMDL
MODEL 12
REMARK VINA RESULT:      -6.2      2.921      6.120
REMARK  Name = LDTT_min.pdb
REMARK  20 active torsions:
REMARK  status: ('A' for Active; 'I' for Inactive)
REMARK    1  A    between atoms: N_1  and  CA_2
REMARK    2  A    between atoms: CA_2  and  C_3
REMARK    3  A    between atoms: CA_2  and  CB_5
REMARK    4  A    between atoms: CB_5  and  CG_6
REMARK    5  A    between atoms: CG_6  and  CD1_7
REMARK    6  A    between atoms: CG_6  and  CD2_8
REMARK    7  A    between atoms: N_9  and  CA_10
REMARK    8  A    between atoms: CA_10  and  C_11
REMARK    9  A    between atoms: CA_10  and  CB_13
REMARK   10  A    between atoms: CB_13  and  CG_14
REMARK   11  A    between atoms: N_17  and  CA_18
REMARK   12  A    between atoms: CA_18  and  C_19
REMARK   13  A    between atoms: CA_18  and  CB_21
REMARK   14  A    between atoms: CB_21  and  OG1_22
REMARK   15  A    between atoms: CB_21  and  CG2_23
REMARK   16  A    between atoms: N_24  and  CA_25
REMARK   17  A    between atoms: CA_25  and  C_26
REMARK   18  A    between atoms: CA_25  and  CB_29
REMARK   19  A    between atoms: CB_29  and  OG1_30
REMARK   20  A    between atoms: CB_29  and  CG2_31
REMARK                            x       y       z     vdW  Elec       q    Type
REMARK                         _______ _______ _______ _____ _____    ______ ____
ROOT
ATOM      1  C   ASP A   2       3.455  -6.729  -9.797  0.00  0.00    +0.235 C 
ATOM      2  O   ASP A   2       3.561  -7.871  -9.357  0.00  0.00    -0.274 OA
ATOM      3  N   THR A   3       4.566  -5.969 -10.136  0.00  0.00    -0.300 N 
ATOM      4  H   THR A   3       4.458  -5.451 -10.998  0.00  0.00    +0.150 HD
ENDROOT
BRANCH   3   5
ATOM      5  CA  THR A   3       5.913  -6.481  -9.841  0.00  0.00    +0.187 C 
BRANCH   5   6
ATOM      6  C   THR A   3       6.389  -6.030  -8.449  0.00  0.00    +0.237 C 
ATOM      7  O   THR A   3       6.365  -4.851  -8.109  0.00  0.00    -0.274 OA
ATOM      8  N   THR A   4       6.528  -7.089  -7.568  0.00  0.00    -0.294 N 
ATOM      9  H   THR A   4       7.046  -7.859  -7.983  0.00  0.00    +0.150 HD
BRANCH   8  10
ATOM     10  CA  THR A   4       6.932  -6.833  -6.175  0.00  0.00    +0.241 C 
BRANCH  10  11
ATOM     11  C   THR A   4       7.939  -7.862  -5.596  0.00  0.00    +0.257 C 
ATOM     12  O   THR A   4       8.017  -8.962  -6.207  0.00  0.00    -0.203 OA
ATOM     13  OXT THR A   4       8.634  -7.407  -4.637  0.00  0.00    -0.203 OA
ENDBRANCH  10  11
BRANCH  10  14
ATOM     14  CB  THR A   4       5.717  -6.979  -5.236  0.00  0.00    +0.149 C 
ATOM     15  CG2 THR A   4       4.421  -7.203  -6.006  0.00  0.00    +0.041 C 
BRANCH  14  16
ATOM     16  OG1 THR A   4       5.836  -8.137  -4.390  0.00  0.00    -0.389 OA
ATOM     17  H   THR A   4       6.061  -8.887  -5.014  0.00  0.00    +0.210 HD
ENDBRANCH  14  16
ENDBRANCH  10  14
ENDBRANCH   8  10
ENDBRANCH   5   6
BRANCH   5  18
ATOM     18  CB  THR A   3       6.915  -5.899 -10.868  0.00  0.00    +0.141 C 
ATOM     19  CG2 THR A   3       6.556  -4.507 -11.372  0.00  0.00    +0.040 C 
BRANCH  18  20
ATOM     20  OG1 THR A   3       8.230  -5.857 -10.286  0.00  0.00    -0.390 OA
ATOM     21  H   THR A   3       8.707  -5.126 -10.723  0.00  0.00    +0.210 HD
ENDBRANCH  18  20
ENDBRANCH   5  18
ENDBRANCH   3   5
BRANCH   1  22
ATOM     22  CA  ASP A   2       2.104  -6.098 -10.196  0.00  0.00    +0.175 C 
BRANCH  22  25
ATOM     23  C   LEU A   1       1.911  -4.808  -8.134  0.00  0.00    +0.199 C 
ATOM     24  O   LEU A   1       3.010  -4.331  -8.328  0.00  0.00    -0.278 OA
ATOM     25  N   ASP A   2       1.306  -5.702  -9.008  0.00  0.00    -0.304 N 
ATOM     26  H   ASP A   2       1.087  -6.577  -8.518  0.00  0.00    +0.149 HD
BRANCH  23  27
ATOM     27  CA  LEU A   1       1.058  -4.446  -6.911  0.00  0.00    +0.013 C 
BRANCH  27  28
ATOM     28  N   LEU A   1       0.996  -2.949  -6.744  0.00  0.00    +0.386 N 
ATOM     29  H   LEU A   1       0.104  -2.621  -7.140  0.00  0.00    -0.089 HD
ATOM     30  H   LEU A   1       1.762  -2.463  -7.218  0.00  0.00    -0.089 HD
ATOM     31  H   LEU A   1       0.981  -2.714  -5.745  0.00  0.00    -0.089 HD
ENDBRANCH  27  28
BRANCH  27  32
ATOM     32  CB  LEU A   1      -0.355  -5.010  -7.040  0.00  0.00    -0.004 C 
BRANCH  32  33
ATOM     33  CG  LEU A   1      -1.338  -4.588  -5.929  0.00  0.00    -0.018 C 
ATOM     34  CD1 LEU A   1      -2.495  -3.801  -6.549  0.00  0.00    +0.007 C 
ATOM     35  CD2 LEU A   1      -1.890  -5.783  -5.147  0.00  0.00    +0.007 C 
ENDBRANCH  32  33
ENDBRANCH  27  32
ENDBRANCH  23  27
ENDBRANCH  22  25
BRANCH  22  36
ATOM     36  CB  ASP A   2       2.376  -4.871 -11.052  0.00  0.00    +0.189 C 
BRANCH  36  37
ATOM     37  CG  ASP A   2       2.426  -5.227 -12.532  0.00  0.00    +0.236 C 
ATOM     38  OD1 ASP A   2       1.304  -5.441 -13.083  0.00  0.00    -0.205 OA
ATOM     39  OD2 ASP A   2       3.559  -5.099 -13.066  0.00  0.00    -0.205 OA
ENDBRANCH  36  37
ENDBRANCH  22  36
ENDBRANCH   1  22
TORSDOF 16
ENDMDL
MODEL 13
REMARK VINA RESULT:      -6.2      3.582      5.997
REMARK  Name = LDTT_min.pdb
REMARK  20 active torsions:
REMARK  status: ('A' for Active; 'I' for Inactive)
REMARK    1  A    between atoms: N_1  and  CA_2
REMARK    2  A    between atoms: CA_2  and  C_3
REMARK    3  A    between atoms: CA_2  and  CB_5
REMARK    4  A    between atoms: CB_5  and  CG_6
REMARK    5  A    between atoms: CG_6  and  CD1_7
REMARK    6  A    between atoms: CG_6  and  CD2_8
REMARK    7  A    between atoms: N_9  and  CA_10
REMARK    8  A    between atoms: CA_10  and  C_11
REMARK    9  A    between atoms: CA_10  and  CB_13
REMARK   10  A    between atoms: CB_13  and  CG_14
REMARK   11  A    between atoms: N_17  and  CA_18
REMARK   12  A    between atoms: CA_18  and  C_19
REMARK   13  A    between atoms: CA_18  and  CB_21
REMARK   14  A    between atoms: CB_21  and  OG1_22
REMARK   15  A    between atoms: CB_21  and  CG2_23
REMARK   16  A    between atoms: N_24  and  CA_25
REMARK   17  A    between atoms: CA_25  and  C_26
REMARK   18  A    between atoms: CA_25  and  CB_29
REMARK   19  A    between atoms: CB_29  and  OG1_30
REMARK   20  A    between atoms: CB_29  and  CG2_31
REMARK                            x       y       z     vdW  Elec       q    Type
REMARK                         _______ _______ _______ _____ _____    ______ ____
ROOT
ATOM      1  C   ASP A   2       3.987  -4.268 -11.379  0.00  0.00    +0.235 C 
ATOM      2  O   ASP A   2       3.883  -3.099 -11.740  0.00  0.00    -0.274 OA
ATOM      3  N   THR A   3       5.222  -4.848 -11.121  0.00  0.00    -0.300 N 
ATOM      4  H   THR A   3       5.232  -5.432 -10.295  0.00  0.00    +0.150 HD
ENDROOT
BRANCH   3   5
ATOM      5  CA  THR A   3       6.451  -4.096 -11.410  0.00  0.00    +0.187 C 
BRANCH   5   6
ATOM      6  C   THR A   3       7.081  -4.545 -12.741  0.00  0.00    +0.237 C 
ATOM      7  O   THR A   3       7.224  -5.732 -13.018  0.00  0.00    -0.274 OA
ATOM      8  N   THR A   4       7.155  -3.517 -13.665  0.00  0.00    -0.294 N 
ATOM      9  H   THR A   4       7.544  -2.671 -13.258  0.00  0.00    +0.150 HD
BRANCH   8  10
ATOM     10  CA  THR A   4       7.689  -3.783 -15.011  0.00  0.00    +0.241 C 
BRANCH  10  11
ATOM     11  C   THR A   4       8.374  -2.564 -15.686  0.00  0.00    +0.257 C 
ATOM     12  O   THR A   4       7.650  -1.545 -15.849  0.00  0.00    -0.203 OA
ATOM     13  OXT THR A   4       9.616  -2.726 -15.885  0.00  0.00    -0.203 OA
ENDBRANCH  10  11
BRANCH  10  14
ATOM     14  CB  THR A   4       6.536  -4.108 -15.984  0.00  0.00    +0.149 C 
ATOM     15  CG2 THR A   4       7.048  -4.536 -17.355  0.00  0.00    +0.041 C 
BRANCH  14  16
ATOM     16  OG1 THR A   4       5.755  -5.227 -15.528  0.00  0.00    -0.389 OA
ATOM     17  H   THR A   4       5.615  -5.059 -14.551  0.00  0.00    +0.210 HD
ENDBRANCH  14  16
ENDBRANCH  10  14
ENDBRANCH   8  10
ENDBRANCH   5   6
BRANCH   5  18
ATOM     18  CB  THR A   3       7.494  -4.380 -10.302  0.00  0.00    +0.141 C 
ATOM     19  CG2 THR A   3       8.879  -3.815 -10.587  0.00  0.00    +0.040 C 
BRANCH  18  20
ATOM     20  OG1 THR A   3       7.024  -3.848  -9.050  0.00  0.00    -0.390 OA
ATOM     21  H   THR A   3       6.049  -3.836  -9.100  0.00  0.00    +0.210 HD
ENDBRANCH  18  20
ENDBRANCH   5  18
ENDBRANCH   3   5
BRANCH   1  22
ATOM     22  CA  ASP A   2       2.776  -5.145 -10.994  0.00  0.00    +0.175 C 
BRANCH  22  25
ATOM     23  C   LEU A   1       2.331  -5.226  -8.596  0.00  0.00    +0.199 C 
ATOM     24  O   LEU A   1       3.136  -6.126  -8.475  0.00  0.00    -0.278 OA
ATOM     25  N   ASP A   2       2.058  -4.608  -9.809  0.00  0.00    -0.304 N 
ATOM     26  H   ASP A   2       1.060  -4.694 -10.029  0.00  0.00    +0.149 HD
BRANCH  23  27
ATOM     27  CA  LEU A   1       1.551  -4.652  -7.406  0.00  0.00    +0.013 C 
BRANCH  27  28
ATOM     28  N   LEU A   1       1.601  -3.145  -7.427  0.00  0.00    +0.386 N 
ATOM     29  H   LEU A   1       2.527  -2.863  -7.778  0.00  0.00    -0.089 HD
ATOM     30  H   LEU A   1       1.459  -2.728  -6.504  0.00  0.00    -0.089 HD
ATOM     31  H   LEU A   1       0.909  -2.787  -8.097  0.00  0.00    -0.089 HD
ENDBRANCH  27  28
BRANCH  27  32
ATOM     32  CB  LEU A   1       0.097  -5.121  -7.425  0.00  0.00    -0.004 C 
BRANCH  32  33
ATOM     33  CG  LEU A   1      -0.818  -4.473  -6.367  0.00  0.00    -0.018 C 
ATOM     34  CD1 LEU A   1      -1.799  -3.523  -7.058  0.00  0.00    +0.007 C 
ATOM     35  CD2 LEU A   1      -1.597  -5.508  -5.550  0.00  0.00    +0.007 C 
ENDBRANCH  32  33
ENDBRANCH  27  32
ENDBRANCH  23  27
ENDBRANCH  22  25
BRANCH  22  36
ATOM     36  CB  ASP A   2       1.823  -5.203 -12.177  0.00  0.00    +0.189 C 
BRANCH  36  37
ATOM     37  CG  ASP A   2       1.190  -6.581 -12.313  0.00  0.00    +0.236 C 
ATOM     38  OD1 ASP A   2       1.289  -7.332 -11.296  0.00  0.00    -0.205 OA
ATOM     39  OD2 ASP A   2       0.500  -6.744 -13.353  0.00  0.00    -0.205 OA
ENDBRANCH  36  37
ENDBRANCH  22  36
ENDBRANCH   1  22
TORSDOF 16
ENDMDL
MODEL 14
REMARK VINA RESULT:      -6.2      4.840      7.827
REMARK  Name = LDTT_min.pdb
REMARK  20 active torsions:
REMARK  status: ('A' for Active; 'I' for Inactive)
REMARK    1  A    between atoms: N_1  and  CA_2
REMARK    2  A    between atoms: CA_2  and  C_3
REMARK    3  A    between atoms: CA_2  and  CB_5
REMARK    4  A    between atoms: CB_5  and  CG_6
REMARK    5  A    between atoms: CG_6  and  CD1_7
REMARK    6  A    between atoms: CG_6  and  CD2_8
REMARK    7  A    between atoms: N_9  and  CA_10
REMARK    8  A    between atoms: CA_10  and  C_11
REMARK    9  A    between atoms: CA_10  and  CB_13
REMARK   10  A    between atoms: CB_13  and  CG_14
REMARK   11  A    between atoms: N_17  and  CA_18
REMARK   12  A    between atoms: CA_18  and  C_19
REMARK   13  A    between atoms: CA_18  and  CB_21
REMARK   14  A    between atoms: CB_21  and  OG1_22
REMARK   15  A    between atoms: CB_21  and  CG2_23
REMARK   16  A    between atoms: N_24  and  CA_25
REMARK   17  A    between atoms: CA_25  and  C_26
REMARK   18  A    between atoms: CA_25  and  CB_29
REMARK   19  A    between atoms: CB_29  and  OG1_30
REMARK   20  A    between atoms: CB_29  and  CG2_31
REMARK                            x       y       z     vdW  Elec       q    Type
REMARK                         _______ _______ _______ _____ _____    ______ ____
ROOT
ATOM      1  C   ASP A   2       7.026  -5.217 -12.204  0.00  0.00    +0.235 C 
ATOM      2  O   ASP A   2       7.529  -6.321 -12.017  0.00  0.00    -0.274 OA
ATOM      3  N   THR A   3       7.062  -4.595 -13.445  0.00  0.00    -0.300 N 
ATOM      4  H   THR A   3       6.192  -4.145 -13.700  0.00  0.00    +0.150 HD
ENDROOT
BRANCH   3   5
ATOM      5  CA  THR A   3       7.833  -5.203 -14.539  0.00  0.00    +0.187 C 
BRANCH   5   6
ATOM      6  C   THR A   3       8.829  -4.199 -15.146  0.00  0.00    +0.237 C 
ATOM      7  O   THR A   3       9.695  -4.550 -15.940  0.00  0.00    -0.274 OA
ATOM      8  N   THR A   4       8.439  -2.885 -14.952  0.00  0.00    -0.294 N 
ATOM      9  H   THR A   4       8.171  -2.709 -13.987  0.00  0.00    +0.150 HD
BRANCH   8  10
ATOM     10  CA  THR A   4       9.254  -1.792 -15.510  0.00  0.00    +0.241 C 
BRANCH  10  11
ATOM     11  C   THR A   4       9.502  -0.610 -14.534  0.00  0.00    +0.257 C 
ATOM     12  O   THR A   4       9.138   0.526 -14.941  0.00  0.00    -0.203 OA
ATOM     13  OXT THR A   4       9.946  -0.971 -13.402  0.00  0.00    -0.203 OA
ENDBRANCH  10  11
BRANCH  10  14
ATOM     14  CB  THR A   4       8.507  -1.118 -16.679  0.00  0.00    +0.149 C 
ATOM     15  CG2 THR A   4       8.881  -1.728 -18.024  0.00  0.00    +0.041 C 
BRANCH  14  16
ATOM     16  OG1 THR A   4       7.084  -1.310 -16.582  0.00  0.00    -0.389 OA
ATOM     17  H   THR A   4       6.849  -1.016 -15.654  0.00  0.00    +0.210 HD
ENDBRANCH  14  16
ENDBRANCH  10  14
ENDBRANCH   8  10
ENDBRANCH   5   6
BRANCH   5  18
ATOM     18  CB  THR A   3       6.866  -5.618 -15.675  0.00  0.00    +0.141 C 
ATOM     19  CG2 THR A   3       5.475  -6.016 -15.198  0.00  0.00    +0.040 C 
BRANCH  18  20
ATOM     20  OG1 THR A   3       6.742  -4.538 -16.618  0.00  0.00    -0.390 OA
ATOM     21  H   THR A   3       5.878  -4.650 -17.060  0.00  0.00    +0.210 HD
ENDBRANCH  18  20
ENDBRANCH   5  18
ENDBRANCH   3   5
BRANCH   1  22
ATOM     22  CA  ASP A   2       6.149  -4.499 -11.155  0.00  0.00    +0.175 C 
BRANCH  22  25
ATOM     23  C   LEU A   1       3.752  -4.840 -11.453  0.00  0.00    +0.199 C 
ATOM     24  O   LEU A   1       3.716  -3.916 -12.239  0.00  0.00    -0.278 OA
ATOM     25  N   ASP A   2       4.921  -5.271 -10.839  0.00  0.00    -0.304 N 
ATOM     26  H   ASP A   2       4.819  -5.222  -9.819  0.00  0.00    +0.149 HD
BRANCH  23  27
ATOM     27  CA  LEU A   1       2.506  -5.654 -11.079  0.00  0.00    +0.013 C 
BRANCH  27  28
ATOM     28  N   LEU A   1       1.879  -5.101  -9.825  0.00  0.00    +0.386 N 
ATOM     29  H   LEU A   1       1.326  -4.272 -10.084  0.00  0.00    -0.089 HD
ATOM     30  H   LEU A   1       2.570  -4.826  -9.122  0.00  0.00    -0.089 HD
ATOM     31  H   LEU A   1       1.220  -5.787  -9.438  0.00  0.00    -0.089 HD
ENDBRANCH  27  28
BRANCH  27  32
ATOM     32  CB  LEU A   1       1.484  -5.646 -12.215  0.00  0.00    -0.004 C 
BRANCH  32  33
ATOM     33  CG  LEU A   1       1.748  -6.658 -13.347  0.00  0.00    -0.018 C 
ATOM     34  CD1 LEU A   1       0.624  -7.697 -13.371  0.00  0.00    +0.007 C 
ATOM     35  CD2 LEU A   1       1.857  -5.990 -14.720  0.00  0.00    +0.007 C 
ENDBRANCH  32  33
ENDBRANCH  27  32
ENDBRANCH  23  27
ENDBRANCH  22  25
BRANCH  22  36
ATOM     36  CB  ASP A   2       6.967  -4.311  -9.886  0.00  0.00    +0.189 C 
BRANCH  36  37
ATOM     37  CG  ASP A   2       6.233  -4.855  -8.668  0.00  0.00    +0.236 C 
ATOM     38  OD1 ASP A   2       5.321  -4.110  -8.199  0.00  0.00    -0.205 OA
ATOM     39  OD2 ASP A   2       6.504  -6.051  -8.381  0.00  0.00    -0.205 OA
ENDBRANCH  36  37
ENDBRANCH  22  36
ENDBRANCH   1  22
TORSDOF 16
ENDMDL
MODEL 15
REMARK VINA RESULT:      -6.2      2.127      4.136
REMARK  Name = LDTT_min.pdb
REMARK  20 active torsions:
REMARK  status: ('A' for Active; 'I' for Inactive)
REMARK    1  A    between atoms: N_1  and  CA_2
REMARK    2  A    between atoms: CA_2  and  C_3
REMARK    3  A    between atoms: CA_2  and  CB_5
REMARK    4  A    between atoms: CB_5  and  CG_6
REMARK    5  A    between atoms: CG_6  and  CD1_7
REMARK    6  A    between atoms: CG_6  and  CD2_8
REMARK    7  A    between atoms: N_9  and  CA_10
REMARK    8  A    between atoms: CA_10  and  C_11
REMARK    9  A    between atoms: CA_10  and  CB_13
REMARK   10  A    between atoms: CB_13  and  CG_14
REMARK   11  A    between atoms: N_17  and  CA_18
REMARK   12  A    between atoms: CA_18  and  C_19
REMARK   13  A    between atoms: CA_18  and  CB_21
REMARK   14  A    between atoms: CB_21  and  OG1_22
REMARK   15  A    between atoms: CB_21  and  CG2_23
REMARK   16  A    between atoms: N_24  and  CA_25
REMARK   17  A    between atoms: CA_25  and  C_26
REMARK   18  A    between atoms: CA_25  and  CB_29
REMARK   19  A    between atoms: CB_29  and  OG1_30
REMARK   20  A    between atoms: CB_29  and  CG2_31
REMARK                            x       y       z     vdW  Elec       q    Type
REMARK                         _______ _______ _______ _____ _____    ______ ____
ROOT
ATOM      1  C   ASP A   2       2.634  -4.301 -10.448  0.00  0.00    +0.235 C 
ATOM      2  O   ASP A   2       2.699  -3.213 -11.013  0.00  0.00    -0.274 OA
ATOM      3  N   THR A   3       2.581  -5.493 -11.159  0.00  0.00    -0.300 N 
ATOM      4  H   THR A   3       3.157  -6.226 -10.767  0.00  0.00    +0.150 HD
ENDROOT
BRANCH   3   5
ATOM      5  CA  THR A   3       2.464  -5.459 -12.624  0.00  0.00    +0.187 C 
BRANCH   5   6
ATOM      6  C   THR A   3       1.315  -6.358 -13.114  0.00  0.00    +0.237 C 
ATOM      7  O   THR A   3       0.249  -5.888 -13.501  0.00  0.00    -0.274 OA
ATOM      8  N   THR A   4       1.726  -7.657 -13.360  0.00  0.00    -0.294 N 
ATOM      9  H   THR A   4       2.278  -8.029 -12.591  0.00  0.00    +0.150 HD
BRANCH   8  10
ATOM     10  CA  THR A   4       0.763  -8.642 -13.880  0.00  0.00    +0.241 C 
BRANCH  10  11
ATOM     11  C   THR A   4       0.409  -9.784 -12.889  0.00  0.00    +0.257 C 
ATOM     12  O   THR A   4       1.384 -10.334 -12.310  0.00  0.00    -0.203 OA
ATOM     13  OXT THR A   4      -0.839  -9.935 -12.715  0.00  0.00    -0.203 OA
ENDBRANCH  10  11
BRANCH  10  14
ATOM     14  CB  THR A   4       1.376  -9.404 -15.073  0.00  0.00    +0.149 C 
ATOM     15  CG2 THR A   4       0.308 -10.033 -15.959  0.00  0.00    +0.041 C 
BRANCH  14  16
ATOM     16  OG1 THR A   4       2.097  -8.522 -15.952  0.00  0.00    -0.389 OA
ATOM     17  H   THR A   4       2.426  -7.783 -15.361  0.00  0.00    +0.210 HD
ENDBRANCH  14  16
ENDBRANCH  10  14
ENDBRANCH   8  10
ENDBRANCH   5   6
BRANCH   5  18
ATOM     18  CB  THR A   3       3.766  -6.015 -13.251  0.00  0.00    +0.141 C 
ATOM     19  CG2 THR A   3       4.788  -4.948 -13.620  0.00  0.00    +0.040 C 
BRANCH  18  20
ATOM     20  OG1 THR A   3       4.377  -6.949 -12.341  0.00  0.00    -0.390 OA
ATOM     21  H   THR A   3       4.996  -6.435 -11.788  0.00  0.00    +0.210 HD
ENDBRANCH  18  20
ENDBRANCH   5  18
ENDBRANCH   3   5
BRANCH   1  22
ATOM     22  CA  ASP A   2       2.797  -4.474  -8.923  0.00  0.00    +0.175 C 
BRANCH  22  25
ATOM     23  C   LEU A   1       4.565  -5.752  -7.831  0.00  0.00    +0.199 C 
ATOM     24  O   LEU A   1       3.773  -6.636  -7.580  0.00  0.00    -0.278 OA
ATOM     25  N   ASP A   2       4.223  -4.601  -8.529  0.00  0.00    -0.304 N 
ATOM     26  H   ASP A   2       4.428  -3.773  -7.960  0.00  0.00    +0.149 HD
BRANCH  23  27
ATOM     27  CA  LEU A   1       6.043  -5.829  -7.427  0.00  0.00    +0.013 C 
BRANCH  27  28
ATOM     28  N   LEU A   1       6.674  -4.461  -7.495  0.00  0.00    +0.386 N 
ATOM     29  H   LEU A   1       6.889  -4.162  -6.533  0.00  0.00    -0.089 HD
ATOM     30  H   LEU A   1       6.065  -3.762  -7.926  0.00  0.00    -0.089 HD
ATOM     31  H   LEU A   1       7.570  -4.520  -7.994  0.00  0.00    -0.089 HD
ENDBRANCH  27  28
BRANCH  27  32
ATOM     32  CB  LEU A   1       6.199  -6.400  -6.018  0.00  0.00    -0.004 C 
BRANCH  32  33
ATOM     33  CG  LEU A   1       6.708  -7.854  -5.949  0.00  0.00    -0.018 C 
ATOM     34  CD1 LEU A   1       5.543  -8.783  -5.599  0.00  0.00    +0.007 C 
ATOM     35  CD2 LEU A   1       7.355  -8.313  -7.258  0.00  0.00    +0.007 C 
ENDBRANCH  32  33
ENDBRANCH  27  32
ENDBRANCH  23  27
ENDBRANCH  22  25
BRANCH  22  36
ATOM     36  CB  ASP A   2       2.189  -3.264  -8.230  0.00  0.00    +0.189 C 
BRANCH  36  37
ATOM     37  CG  ASP A   2       1.104  -3.676  -7.244  0.00  0.00    +0.236 C 
ATOM     38  OD1 ASP A   2       0.677  -2.757  -6.482  0.00  0.00    -0.205 OA
ATOM     39  OD2 ASP A   2       0.643  -4.834  -7.423  0.00  0.00    -0.205 OA
ENDBRANCH  36  37
ENDBRANCH  22  36
ENDBRANCH   1  22
TORSDOF 16
ENDMDL
MODEL 16
REMARK VINA RESULT:      -6.1      2.638      4.472
REMARK  Name = LDTT_min.pdb
REMARK  20 active torsions:
REMARK  status: ('A' for Active; 'I' for Inactive)
REMARK    1  A    between atoms: N_1  and  CA_2
REMARK    2  A    between atoms: CA_2  and  C_3
REMARK    3  A    between atoms: CA_2  and  CB_5
REMARK    4  A    between atoms: CB_5  and  CG_6
REMARK    5  A    between atoms: CG_6  and  CD1_7
REMARK    6  A    between atoms: CG_6  and  CD2_8
REMARK    7  A    between atoms: N_9  and  CA_10
REMARK    8  A    between atoms: CA_10  and  C_11
REMARK    9  A    between atoms: CA_10  and  CB_13
REMARK   10  A    between atoms: CB_13  and  CG_14
REMARK   11  A    between atoms: N_17  and  CA_18
REMARK   12  A    between atoms: CA_18  and  C_19
REMARK   13  A    between atoms: CA_18  and  CB_21
REMARK   14  A    between atoms: CB_21  and  OG1_22
REMARK   15  A    between atoms: CB_21  and  CG2_23
REMARK   16  A    between atoms: N_24  and  CA_25
REMARK   17  A    between atoms: CA_25  and  C_26
REMARK   18  A    between atoms: CA_25  and  CB_29
REMARK   19  A    between atoms: CB_29  and  OG1_30
REMARK   20  A    between atoms: CB_29  and  CG2_31
REMARK                            x       y       z     vdW  Elec       q    Type
REMARK                         _______ _______ _______ _____ _____    ______ ____
ROOT
ATOM      1  C   ASP A   2       3.509  -4.502 -10.508  0.00  0.00    +0.235 C 
ATOM      2  O   ASP A   2       3.213  -3.315 -10.609  0.00  0.00    -0.274 OA
ATOM      3  N   THR A   3       4.787  -4.965 -10.791  0.00  0.00    -0.300 N 
ATOM      4  H   THR A   3       5.127  -5.651 -10.130  0.00  0.00    +0.150 HD
ENDROOT
BRANCH   3   5
ATOM      5  CA  THR A   3       5.785  -4.043 -11.353  0.00  0.00    +0.187 C 
BRANCH   5   6
ATOM      6  C   THR A   3       5.751  -4.054 -12.892  0.00  0.00    +0.237 C 
ATOM      7  O   THR A   3       6.011  -3.051 -13.549  0.00  0.00    -0.274 OA
ATOM      8  N   THR A   4       5.717  -5.337 -13.412  0.00  0.00    -0.294 N 
ATOM      9  H   THR A   4       5.015  -5.911 -12.952  0.00  0.00    +0.150 HD
BRANCH   8  10
ATOM     10  CA  THR A   4       5.727  -5.534 -14.871  0.00  0.00    +0.241 C 
BRANCH  10  11
ATOM     11  C   THR A   4       4.901  -6.752 -15.364  0.00  0.00    +0.257 C 
ATOM     12  O   THR A   4       3.660  -6.701 -15.148  0.00  0.00    -0.203 OA
ATOM     13  OXT THR A   4       5.584  -7.595 -16.021  0.00  0.00    -0.203 OA
ENDBRANCH  10  11
BRANCH  10  14
ATOM     14  CB  THR A   4       7.154  -5.873 -15.349  0.00  0.00    +0.149 C 
ATOM     15  CG2 THR A   4       7.855  -4.666 -15.961  0.00  0.00    +0.041 C 
BRANCH  14  16
ATOM     16  OG1 THR A   4       8.003  -6.263 -14.254  0.00  0.00    -0.389 OA
ATOM     17  H   THR A   4       8.355  -5.401 -13.885  0.00  0.00    +0.210 HD
ENDBRANCH  14  16
ENDBRANCH  10  14
ENDBRANCH   8  10
ENDBRANCH   5   6
BRANCH   5  18
ATOM     18  CB  THR A   3       7.201  -4.508 -10.933  0.00  0.00    +0.141 C 
ATOM     19  CG2 THR A   3       7.269  -5.953 -10.455  0.00  0.00    +0.040 C 
BRANCH  18  20
ATOM     20  OG1 THR A   3       8.109  -4.341 -12.038  0.00  0.00    -0.390 OA
ATOM     21  H   THR A   3       7.561  -4.174 -12.828  0.00  0.00    +0.210 HD
ENDBRANCH  18  20
ENDBRANCH   5  18
ENDBRANCH   3   5
BRANCH   1  22
ATOM     22  CA  ASP A   2       2.570  -5.558  -9.885  0.00  0.00    +0.175 C 
BRANCH  22  25
ATOM     23  C   LEU A   1       1.969  -4.977  -7.593  0.00  0.00    +0.199 C 
ATOM     24  O   LEU A   1       3.023  -5.431  -7.199  0.00  0.00    -0.278 OA
ATOM     25  N   ASP A   2       1.607  -4.948  -8.933  0.00  0.00    -0.304 N 
ATOM     26  H   ASP A   2       0.726  -5.456  -9.069  0.00  0.00    +0.149 HD
BRANCH  23  27
ATOM     27  CA  LEU A   1       0.933  -4.357  -6.645  0.00  0.00    +0.013 C 
BRANCH  27  28
ATOM     28  N   LEU A   1       1.036  -2.853  -6.675  0.00  0.00    +0.386 N 
ATOM     29  H   LEU A   1       1.997  -2.605  -6.951  0.00  0.00    -0.089 HD
ATOM     30  H   LEU A   1       0.834  -2.422  -5.769  0.00  0.00    -0.089 HD
ATOM     31  H   LEU A   1       0.414  -2.479  -7.401  0.00  0.00    -0.089 HD
ENDBRANCH  27  28
BRANCH  27  32
ATOM     32  CB  LEU A   1      -0.484  -4.785  -7.024  0.00  0.00    -0.004 C 
BRANCH  32  33
ATOM     33  CG  LEU A   1      -1.559  -4.527  -5.950  0.00  0.00    -0.018 C 
ATOM     34  CD1 LEU A   1      -2.795  -3.908  -6.608  0.00  0.00    +0.007 C 
ATOM     35  CD2 LEU A   1      -1.961  -5.801  -5.202  0.00  0.00    +0.007 C 
ENDBRANCH  32  33
ENDBRANCH  27  32
ENDBRANCH  23  27
ENDBRANCH  22  25
BRANCH  22  36
ATOM     36  CB  ASP A   2       1.806  -6.248 -11.004  0.00  0.00    +0.189 C 
BRANCH  36  37
ATOM     37  CG  ASP A   2       1.534  -7.709 -10.670  0.00  0.00    +0.236 C 
ATOM     38  OD1 ASP A   2       1.896  -8.084  -9.514  0.00  0.00    -0.205 OA
ATOM     39  OD2 ASP A   2       0.829  -8.320 -11.516  0.00  0.00    -0.205 OA
ENDBRANCH  36  37
ENDBRANCH  22  36
ENDBRANCH   1  22
TORSDOF 16
ENDMDL
MODEL 17
REMARK VINA RESULT:      -6.1      2.469      4.623
REMARK  Name = LDTT_min.pdb
REMARK  20 active torsions:
REMARK  status: ('A' for Active; 'I' for Inactive)
REMARK    1  A    between atoms: N_1  and  CA_2
REMARK    2  A    between atoms: CA_2  and  C_3
REMARK    3  A    between atoms: CA_2  and  CB_5
REMARK    4  A    between atoms: CB_5  and  CG_6
REMARK    5  A    between atoms: CG_6  and  CD1_7
REMARK    6  A    between atoms: CG_6  and  CD2_8
REMARK    7  A    between atoms: N_9  and  CA_10
REMARK    8  A    between atoms: CA_10  and  C_11
REMARK    9  A    between atoms: CA_10  and  CB_13
REMARK   10  A    between atoms: CB_13  and  CG_14
REMARK   11  A    between atoms: N_17  and  CA_18
REMARK   12  A    between atoms: CA_18  and  C_19
REMARK   13  A    between atoms: CA_18  and  CB_21
REMARK   14  A    between atoms: CB_21  and  OG1_22
REMARK   15  A    between atoms: CB_21  and  CG2_23
REMARK   16  A    between atoms: N_24  and  CA_25
REMARK   17  A    between atoms: CA_25  and  C_26
REMARK   18  A    between atoms: CA_25  and  CB_29
REMARK   19  A    between atoms: CB_29  and  OG1_30
REMARK   20  A    between atoms: CB_29  and  CG2_31
REMARK                            x       y       z     vdW  Elec       q    Type
REMARK                         _______ _______ _______ _____ _____    ______ ____
ROOT
ATOM      1  C   ASP A   2       3.209  -4.115 -10.267  0.00  0.00    +0.235 C 
ATOM      2  O   ASP A   2       2.840  -3.076 -10.806  0.00  0.00    -0.274 OA
ATOM      3  N   THR A   3       4.069  -5.003 -10.899  0.00  0.00    -0.300 N 
ATOM      4  H   THR A   3       4.786  -5.378 -10.292  0.00  0.00    +0.150 HD
ENDROOT
BRANCH   3   5
ATOM      5  CA  THR A   3       4.449  -4.771 -12.300  0.00  0.00    +0.187 C 
BRANCH   5   6
ATOM      6  C   THR A   3       3.725  -5.746 -13.244  0.00  0.00    +0.237 C 
ATOM      7  O   THR A   3       4.023  -5.836 -14.431  0.00  0.00    -0.274 OA
ATOM      8  N   THR A   4       2.971  -6.685 -12.560  0.00  0.00    -0.294 N 
ATOM      9  H   THR A   4       2.392  -6.254 -11.844  0.00  0.00    +0.150 HD
BRANCH   8  10
ATOM     10  CA  THR A   4       2.247  -7.727 -13.308  0.00  0.00    +0.241 C 
BRANCH  10  11
ATOM     11  C   THR A   4       1.001  -7.217 -14.081  0.00  0.00    +0.257 C 
ATOM     12  O   THR A   4       0.729  -7.827 -15.151  0.00  0.00    -0.203 OA
ATOM     13  OXT THR A   4       0.356  -6.314 -13.466  0.00  0.00    -0.203 OA
ENDBRANCH  10  11
BRANCH  10  14
ATOM     14  CB  THR A   4       1.644  -8.757 -12.331  0.00  0.00    +0.149 C 
ATOM     15  CG2 THR A   4       1.688  -8.272 -10.887  0.00  0.00    +0.041 C 
BRANCH  14  16
ATOM     16  OG1 THR A   4       0.246  -8.981 -12.591  0.00  0.00    -0.389 OA
ATOM     17  H   THR A   4      -0.173  -9.055 -11.684  0.00  0.00    +0.210 HD
ENDBRANCH  14  16
ENDBRANCH  10  14
ENDBRANCH   8  10
ENDBRANCH   5   6
BRANCH   5  18
ATOM     18  CB  THR A   3       5.967  -5.032 -12.465  0.00  0.00    +0.141 C 
ATOM     19  CG2 THR A   3       6.818  -4.526 -11.308  0.00  0.00    +0.040 C 
BRANCH  18  20
ATOM     20  OG1 THR A   3       6.197  -6.443 -12.629  0.00  0.00    -0.390 OA
ATOM     21  H   THR A   3       5.323  -6.856 -12.762  0.00  0.00    +0.210 HD
ENDBRANCH  18  20
ENDBRANCH   5  18
ENDBRANCH   3   5
BRANCH   1  22
ATOM     22  CA  ASP A   2       2.921  -4.449  -8.787  0.00  0.00    +0.175 C 
BRANCH  22  25
ATOM     23  C   LEU A   1       4.478  -6.088  -7.869  0.00  0.00    +0.199 C 
ATOM     24  O   LEU A   1       3.811  -6.987  -8.338  0.00  0.00    -0.278 OA
ATOM     25  N   ASP A   2       4.166  -4.745  -8.034  0.00  0.00    -0.304 N 
ATOM     26  H   ASP A   2       4.048  -4.298  -7.118  0.00  0.00    +0.149 HD
BRANCH  23  27
ATOM     27  CA  LEU A   1       5.761  -6.345  -7.067  0.00  0.00    +0.013 C 
BRANCH  27  28
ATOM     28  N   LEU A   1       6.628  -5.111  -7.062  0.00  0.00    +0.386 N 
ATOM     29  H   LEU A   1       7.419  -5.276  -7.699  0.00  0.00    -0.089 HD
ATOM     30  H   LEU A   1       6.996  -4.886  -6.134  0.00  0.00    -0.089 HD
ATOM     31  H   LEU A   1       6.100  -4.318  -7.444  0.00  0.00    -0.089 HD
ENDBRANCH  27  28
BRANCH  27  32
ATOM     32  CB  LEU A   1       5.437  -6.755  -5.631  0.00  0.00    -0.004 C 
BRANCH  32  33
ATOM     33  CG  LEU A   1       5.952  -8.146  -5.211  0.00  0.00    -0.018 C 
ATOM     34  CD1 LEU A   1       5.148  -9.225  -5.941  0.00  0.00    +0.007 C 
ATOM     35  CD2 LEU A   1       7.444  -8.334  -5.502  0.00  0.00    +0.007 C 
ENDBRANCH  32  33
ENDBRANCH  27  32
ENDBRANCH  23  27
ENDBRANCH  22  25
BRANCH  22  36
ATOM     36  CB  ASP A   2       2.217  -3.261  -8.150  0.00  0.00    +0.189 C 
BRANCH  36  37
ATOM     37  CG  ASP A   2       1.092  -3.713  -7.228  0.00  0.00    +0.236 C 
ATOM     38  OD1 ASP A   2       0.645  -2.830  -6.435  0.00  0.00    -0.205 OA
ATOM     39  OD2 ASP A   2       0.627  -4.855  -7.484  0.00  0.00    -0.205 OA
ENDBRANCH  36  37
ENDBRANCH  22  36
ENDBRANCH   1  22
TORSDOF 16
ENDMDL
MODEL 18
REMARK VINA RESULT:      -6.1      3.856      6.272
REMARK  Name = LDTT_min.pdb
REMARK  20 active torsions:
REMARK  status: ('A' for Active; 'I' for Inactive)
REMARK    1  A    between atoms: N_1  and  CA_2
REMARK    2  A    between atoms: CA_2  and  C_3
REMARK    3  A    between atoms: CA_2  and  CB_5
REMARK    4  A    between atoms: CB_5  and  CG_6
REMARK    5  A    between atoms: CG_6  and  CD1_7
REMARK    6  A    between atoms: CG_6  and  CD2_8
REMARK    7  A    between atoms: N_9  and  CA_10
REMARK    8  A    between atoms: CA_10  and  C_11
REMARK    9  A    between atoms: CA_10  and  CB_13
REMARK   10  A    between atoms: CB_13  and  CG_14
REMARK   11  A    between atoms: N_17  and  CA_18
REMARK   12  A    between atoms: CA_18  and  C_19
REMARK   13  A    between atoms: CA_18  and  CB_21
REMARK   14  A    between atoms: CB_21  and  OG1_22
REMARK   15  A    between atoms: CB_21  and  CG2_23
REMARK   16  A    between atoms: N_24  and  CA_25
REMARK   17  A    between atoms: CA_25  and  C_26
REMARK   18  A    between atoms: CA_25  and  CB_29
REMARK   19  A    between atoms: CB_29  and  OG1_30
REMARK   20  A    between atoms: CB_29  and  CG2_31
REMARK                            x       y       z     vdW  Elec       q    Type
REMARK                         _______ _______ _______ _____ _____    ______ ____
ROOT
ATOM      1  C   ASP A   2       5.189  -4.678 -10.835  0.00  0.00    +0.235 C 
ATOM      2  O   ASP A   2       5.848  -4.258  -9.889  0.00  0.00    -0.274 OA
ATOM      3  N   THR A   3       5.782  -5.050 -12.034  0.00  0.00    -0.300 N 
ATOM      4  H   THR A   3       5.403  -5.900 -12.430  0.00  0.00    +0.150 HD
ENDROOT
BRANCH   3   5
ATOM      5  CA  THR A   3       7.219  -4.814 -12.236  0.00  0.00    +0.187 C 
BRANCH   5   6
ATOM      6  C   THR A   3       7.463  -3.663 -13.228  0.00  0.00    +0.237 C 
ATOM      7  O   THR A   3       7.344  -2.488 -12.896  0.00  0.00    -0.274 OA
ATOM      8  N   THR A   4       8.113  -4.083 -14.376  0.00  0.00    -0.294 N 
ATOM      9  H   THR A   4       7.686  -4.918 -14.767  0.00  0.00    +0.150 HD
BRANCH   8  10
ATOM     10  CA  THR A   4       8.468  -3.102 -15.415  0.00  0.00    +0.241 C 
BRANCH  10  11
ATOM     11  C   THR A   4       7.295  -2.696 -16.347  0.00  0.00    +0.257 C 
ATOM     12  O   THR A   4       6.557  -3.637 -16.746  0.00  0.00    -0.203 OA
ATOM     13  OXT THR A   4       7.176  -1.441 -16.495  0.00  0.00    -0.203 OA
ENDBRANCH  10  11
BRANCH  10  14
ATOM     14  CB  THR A   4       9.488  -3.715 -16.397  0.00  0.00    +0.149 C 
ATOM     15  CG2 THR A   4       9.582  -5.229 -16.253  0.00  0.00    +0.041 C 
BRANCH  14  16
ATOM     16  OG1 THR A   4       9.097  -3.510 -17.767  0.00  0.00    -0.389 OA
ATOM     17  H   THR A   4       8.637  -2.620 -17.770  0.00  0.00    +0.210 HD
ENDBRANCH  14  16
ENDBRANCH  10  14
ENDBRANCH   8  10
ENDBRANCH   5   6
BRANCH   5  18
ATOM     18  CB  THR A   3       7.861  -6.081 -12.852  0.00  0.00    +0.141 C 
ATOM     19  CG2 THR A   3       8.433  -7.053 -11.829  0.00  0.00    +0.040 C 
BRANCH  18  20
ATOM     20  OG1 THR A   3       6.886  -6.772 -13.655  0.00  0.00    -0.390 OA
ATOM     21  H   THR A   3       7.370  -7.164 -14.407  0.00  0.00    +0.210 HD
ENDBRANCH  18  20
ENDBRANCH   5  18
ENDBRANCH   3   5
BRANCH   1  22
ATOM     22  CA  ASP A   2       3.685  -5.016 -10.735  0.00  0.00    +0.175 C 
BRANCH  22  25
ATOM     23  C   LEU A   1       2.155  -5.342  -8.863  0.00  0.00    +0.199 C 
ATOM     24  O   LEU A   1       1.858  -6.437  -9.294  0.00  0.00    -0.278 OA
ATOM     25  N   ASP A   2       3.088  -4.513  -9.472  0.00  0.00    -0.304 N 
ATOM     26  H   ASP A   2       2.655  -3.614  -9.709  0.00  0.00    +0.149 HD
BRANCH  23  27
ATOM     27  CA  LEU A   1       1.550  -4.771  -7.573  0.00  0.00    +0.013 C 
BRANCH  27  28
ATOM     28  N   LEU A   1       1.715  -3.273  -7.539  0.00  0.00    +0.386 N 
ATOM     29  H   LEU A   1       1.755  -2.935  -8.511  0.00  0.00    -0.089 HD
ATOM     30  H   LEU A   1       2.565  -2.977  -7.054  0.00  0.00    -0.089 HD
ATOM     31  H   LEU A   1       0.885  -2.845  -7.110  0.00  0.00    -0.089 HD
ENDBRANCH  27  28
BRANCH  27  32
ATOM     32  CB  LEU A   1       0.070  -5.131  -7.456  0.00  0.00    -0.004 C 
BRANCH  32  33
ATOM     33  CG  LEU A   1      -0.715  -4.350  -6.382  0.00  0.00    -0.018 C 
ATOM     34  CD1 LEU A   1      -1.694  -3.393  -7.066  0.00  0.00    +0.007 C 
ATOM     35  CD2 LEU A   1      -1.481  -5.271  -5.428  0.00  0.00    +0.007 C 
ENDBRANCH  32  33
ENDBRANCH  27  32
ENDBRANCH  23  27
ENDBRANCH  22  25
BRANCH  22  36
ATOM     36  CB  ASP A   2       2.967  -4.386 -11.918  0.00  0.00    +0.189 C 
BRANCH  36  37
ATOM     37  CG  ASP A   2       2.426  -5.447 -12.867  0.00  0.00    +0.236 C 
ATOM     38  OD1 ASP A   2       1.182  -5.677 -12.782  0.00  0.00    -0.205 OA
ATOM     39  OD2 ASP A   2       3.247  -5.841 -13.738  0.00  0.00    -0.205 OA
ENDBRANCH  36  37
ENDBRANCH  22  36
ENDBRANCH   1  22
TORSDOF 16
ENDMDL
MODEL 19
REMARK VINA RESULT:      -6.1      3.438      6.780
REMARK  Name = LDTT_min.pdb
REMARK  20 active torsions:
REMARK  status: ('A' for Active; 'I' for Inactive)
REMARK    1  A    between atoms: N_1  and  CA_2
REMARK    2  A    between atoms: CA_2  and  C_3
REMARK    3  A    between atoms: CA_2  and  CB_5
REMARK    4  A    between atoms: CB_5  and  CG_6
REMARK    5  A    between atoms: CG_6  and  CD1_7
REMARK    6  A    between atoms: CG_6  and  CD2_8
REMARK    7  A    between atoms: N_9  and  CA_10
REMARK    8  A    between atoms: CA_10  and  C_11
REMARK    9  A    between atoms: CA_10  and  CB_13
REMARK   10  A    between atoms: CB_13  and  CG_14
REMARK   11  A    between atoms: N_17  and  CA_18
REMARK   12  A    between atoms: CA_18  and  C_19
REMARK   13  A    between atoms: CA_18  and  CB_21
REMARK   14  A    between atoms: CB_21  and  OG1_22
REMARK   15  A    between atoms: CB_21  and  CG2_23
REMARK   16  A    between atoms: N_24  and  CA_25
REMARK   17  A    between atoms: CA_25  and  C_26
REMARK   18  A    between atoms: CA_25  and  CB_29
REMARK   19  A    between atoms: CB_29  and  OG1_30
REMARK   20  A    between atoms: CB_29  and  CG2_31
REMARK                            x       y       z     vdW  Elec       q    Type
REMARK                         _______ _______ _______ _____ _____    ______ ____
ROOT
ATOM      1  C   ASP A   2       4.867  -5.697  -9.212  0.00  0.00    +0.235 C 
ATOM      2  O   ASP A   2       4.475  -6.670  -9.849  0.00  0.00    -0.274 OA
ATOM      3  N   THR A   3       4.013  -4.661  -8.857  0.00  0.00    -0.300 N 
ATOM      4  H   THR A   3       4.150  -4.326  -7.912  0.00  0.00    +0.150 HD
ENDROOT
BRANCH   3   5
ATOM      5  CA  THR A   3       2.634  -4.651  -9.365  0.00  0.00    +0.187 C 
BRANCH   5   6
ATOM      6  C   THR A   3       2.594  -4.321 -10.867  0.00  0.00    +0.237 C 
ATOM      7  O   THR A   3       2.883  -3.206 -11.290  0.00  0.00    -0.274 OA
ATOM      8  N   THR A   4       2.519  -5.455 -11.657  0.00  0.00    -0.294 N 
ATOM      9  H   THR A   4       1.801  -6.096 -11.329  0.00  0.00    +0.150 HD
BRANCH   8  10
ATOM     10  CA  THR A   4       2.519  -5.325 -13.124  0.00  0.00    +0.241 C 
BRANCH  10  11
ATOM     11  C   THR A   4       1.426  -6.159 -13.846  0.00  0.00    +0.257 C 
ATOM     12  O   THR A   4       0.240  -5.961 -13.467  0.00  0.00    -0.203 OA
ATOM     13  OXT THR A   4       1.873  -6.858 -14.806  0.00  0.00    -0.203 OA
ENDBRANCH  10  11
BRANCH  10  14
ATOM     14  CB  THR A   4       3.827  -5.899 -13.707  0.00  0.00    +0.149 C 
ATOM     15  CG2 THR A   4       4.970  -4.893 -13.646  0.00  0.00    +0.041 C 
BRANCH  14  16
ATOM     16  OG1 THR A   4       4.299  -7.025 -12.945  0.00  0.00    -0.389 OA
ATOM     17  H   THR A   4       4.030  -6.825 -12.001  0.00  0.00    +0.210 HD
ENDBRANCH  14  16
ENDBRANCH  10  14
ENDBRANCH   8  10
ENDBRANCH   5   6
BRANCH   5  18
ATOM     18  CB  THR A   3       1.833  -3.542  -8.640  0.00  0.00    +0.141 C 
ATOM     19  CG2 THR A   3       1.363  -3.922  -7.242  0.00  0.00    +0.040 C 
BRANCH  18  20
ATOM     20  OG1 THR A   3       2.634  -2.349  -8.553  0.00  0.00    -0.390 OA
ATOM     21  H   THR A   3       2.300  -1.844  -7.787  0.00  0.00    +0.210 HD
ENDBRANCH  18  20
ENDBRANCH   5  18
ENDBRANCH   3   5
BRANCH   1  22
ATOM     22  CA  ASP A   2       6.273  -5.611  -8.580  0.00  0.00    +0.175 C 
BRANCH  22  25
ATOM     23  C   LEU A   1       7.885  -4.812 -10.229  0.00  0.00    +0.199 C 
ATOM     24  O   LEU A   1       7.933  -5.920 -10.721  0.00  0.00    -0.278 OA
ATOM     25  N   ASP A   2       7.068  -4.494  -9.151  0.00  0.00    -0.304 N 
ATOM     26  H   ASP A   2       7.636  -4.134  -8.377  0.00  0.00    +0.149 HD
BRANCH  23  27
ATOM     27  CA  LEU A   1       8.703  -3.632 -10.771  0.00  0.00    +0.013 C 
BRANCH  27  28
ATOM     28  N   LEU A   1       9.965  -3.459  -9.963  0.00  0.00    +0.386 N 
ATOM     29  H   LEU A   1       9.971  -2.502  -9.584  0.00  0.00    -0.089 HD
ATOM     30  H   LEU A   1      10.814  -3.596 -10.517  0.00  0.00    -0.089 HD
ATOM     31  H   LEU A   1       9.949  -4.097  -9.159  0.00  0.00    -0.089 HD
ENDBRANCH  27  28
BRANCH  27  32
ATOM     32  CB  LEU A   1       9.056  -3.839 -12.243  0.00  0.00    -0.004 C 
BRANCH  32  33
ATOM     33  CG  LEU A   1       8.627  -2.700 -13.189  0.00  0.00    -0.018 C 
ATOM     34  CD1 LEU A   1       9.627  -1.546 -13.079  0.00  0.00    +0.007 C 
ATOM     35  CD2 LEU A   1       8.527  -3.154 -14.648  0.00  0.00    +0.007 C 
ENDBRANCH  32  33
ENDBRANCH  27  32
ENDBRANCH  23  27
ENDBRANCH  22  25
BRANCH  22  36
ATOM     36  CB  ASP A   2       6.120  -5.405  -7.081  0.00  0.00    +0.189 C 
BRANCH  36  37
ATOM     37  CG  ASP A   2       6.647  -6.602  -6.301  0.00  0.00    +0.236 C 
ATOM     38  OD1 ASP A   2       6.212  -6.718  -5.115  0.00  0.00    -0.205 OA
ATOM     39  OD2 ASP A   2       7.315  -7.423  -6.983  0.00  0.00    -0.205 OA
ENDBRANCH  36  37
ENDBRANCH  22  36
ENDBRANCH   1  22
TORSDOF 16
ENDMDL
MODEL 20
REMARK VINA RESULT:      -6.1      3.385      5.702
REMARK  Name = LDTT_min.pdb
REMARK  20 active torsions:
REMARK  status: ('A' for Active; 'I' for Inactive)
REMARK    1  A    between atoms: N_1  and  CA_2
REMARK    2  A    between atoms: CA_2  and  C_3
REMARK    3  A    between atoms: CA_2  and  CB_5
REMARK    4  A    between atoms: CB_5  and  CG_6
REMARK    5  A    between atoms: CG_6  and  CD1_7
REMARK    6  A    between atoms: CG_6  and  CD2_8
REMARK    7  A    between atoms: N_9  and  CA_10
REMARK    8  A    between atoms: CA_10  and  C_11
REMARK    9  A    between atoms: CA_10  and  CB_13
REMARK   10  A    between atoms: CB_13  and  CG_14
REMARK   11  A    between atoms: N_17  and  CA_18
REMARK   12  A    between atoms: CA_18  and  C_19
REMARK   13  A    between atoms: CA_18  and  CB_21
REMARK   14  A    between atoms: CB_21  and  OG1_22
REMARK   15  A    between atoms: CB_21  and  CG2_23
REMARK   16  A    between atoms: N_24  and  CA_25
REMARK   17  A    between atoms: CA_25  and  C_26
REMARK   18  A    between atoms: CA_25  and  CB_29
REMARK   19  A    between atoms: CB_29  and  OG1_30
REMARK   20  A    between atoms: CB_29  and  CG2_31
REMARK                            x       y       z     vdW  Elec       q    Type
REMARK                         _______ _______ _______ _____ _____    ______ ____
ROOT
ATOM      1  C   ASP A   2       5.753  -5.127  -9.876  0.00  0.00    +0.235 C 
ATOM      2  O   ASP A   2       6.861  -5.652  -9.943  0.00  0.00    -0.274 OA
ATOM      3  N   THR A   3       4.941  -4.985 -10.992  0.00  0.00    -0.300 N 
ATOM      4  H   THR A   3       3.966  -5.192 -10.816  0.00  0.00    +0.150 HD
ENDROOT
BRANCH   3   5
ATOM      5  CA  THR A   3       5.460  -5.347 -12.319  0.00  0.00    +0.187 C 
BRANCH   5   6
ATOM      6  C   THR A   3       5.970  -4.108 -13.077  0.00  0.00    +0.237 C 
ATOM      7  O   THR A   3       5.500  -2.992 -12.878  0.00  0.00    -0.274 OA
ATOM      8  N   THR A   4       7.170  -4.341 -13.726  0.00  0.00    -0.294 N 
ATOM      9  H   THR A   4       7.148  -5.206 -14.260  0.00  0.00    +0.150 HD
BRANCH   8  10
ATOM     10  CA  THR A   4       7.826  -3.248 -14.463  0.00  0.00    +0.241 C 
BRANCH  10  11
ATOM     11  C   THR A   4       7.185  -2.923 -15.839  0.00  0.00    +0.257 C 
ATOM     12  O   THR A   4       6.628  -3.887 -16.430  0.00  0.00    -0.203 OA
ATOM     13  OXT THR A   4       7.217  -1.689 -16.134  0.00  0.00    -0.203 OA
ENDBRANCH  10  11
BRANCH  10  14
ATOM     14  CB  THR A   4       9.265  -3.655 -14.845  0.00  0.00    +0.149 C 
ATOM     15  CG2 THR A   4       9.463  -5.165 -14.800  0.00  0.00    +0.041 C 
BRANCH  14  16
ATOM     16  OG1 THR A   4       9.577  -3.293 -16.203  0.00  0.00    -0.389 OA
ATOM     17  H   THR A   4       8.687  -3.196 -16.652  0.00  0.00    +0.210 HD
ENDBRANCH  14  16
ENDBRANCH  10  14
ENDBRANCH   8  10
ENDBRANCH   5   6
BRANCH   5  18
ATOM     18  CB  THR A   3       4.315  -5.952 -13.167  0.00  0.00    +0.141 C 
ATOM     19  CG2 THR A   3       2.918  -5.589 -12.680  0.00  0.00    +0.040 C 
BRANCH  18  20
ATOM     20  OG1 THR A   3       4.454  -5.528 -14.536  0.00  0.00    -0.390 OA
ATOM     21  H   THR A   3       4.901  -6.255 -15.009  0.00  0.00    +0.210 HD
ENDBRANCH  18  20
ENDBRANCH   5  18
ENDBRANCH   3   5
BRANCH   1  22
ATOM     22  CA  ASP A   2       5.076  -4.751  -8.540  0.00  0.00    +0.175 C 
BRANCH  22  25
ATOM     23  C   LEU A   1       2.706  -4.306  -8.163  0.00  0.00    +0.199 C 
ATOM     24  O   LEU A   1       2.952  -3.129  -8.001  0.00  0.00    -0.278 OA
ATOM     25  N   ASP A   2       3.679  -5.250  -8.469  0.00  0.00    -0.304 N 
ATOM     26  H   ASP A   2       3.685  -5.988  -7.757  0.00  0.00    +0.149 HD
BRANCH  23  27
ATOM     27  CA  LEU A   1       1.282  -4.871  -8.079  0.00  0.00    +0.013 C 
BRANCH  27  28
ATOM     28  N   LEU A   1       1.319  -6.379  -8.095  0.00  0.00    +0.386 N 
ATOM     29  H   LEU A   1       0.689  -6.704  -8.842  0.00  0.00    -0.089 HD
ATOM     30  H   LEU A   1       1.018  -6.794  -7.210  0.00  0.00    -0.089 HD
ATOM     31  H   LEU A   1       2.263  -6.698  -8.343  0.00  0.00    -0.089 HD
ENDBRANCH  27  28
BRANCH  27  32
ATOM     32  CB  LEU A   1       0.573  -4.385  -6.816  0.00  0.00    -0.004 C 
BRANCH  32  33
ATOM     33  CG  LEU A   1      -0.963  -4.518  -6.832  0.00  0.00    -0.018 C 
ATOM     34  CD1 LEU A   1      -1.432  -5.133  -5.510  0.00  0.00    +0.007 C 
ATOM     35  CD2 LEU A   1      -1.668  -3.176  -7.051  0.00  0.00    +0.007 C 
ENDBRANCH  32  33
ENDBRANCH  27  32
ENDBRANCH  23  27
ENDBRANCH  22  25
BRANCH  22  36
ATOM     36  CB  ASP A   2       5.884  -5.351  -7.400  0.00  0.00    +0.189 C 
BRANCH  36  37
ATOM     37  CG  ASP A   2       5.245  -6.633  -6.883  0.00  0.00    +0.236 C 
ATOM     38  OD1 ASP A   2       5.584  -7.696  -7.486  0.00  0.00    -0.205 OA
ATOM     39  OD2 ASP A   2       4.594  -6.502  -5.814  0.00  0.00    -0.205 OA
ENDBRANCH  36  37
ENDBRANCH  22  36
ENDBRANCH   1  22
TORSDOF 16
ENDMDL
