REMARK  Name = LDTT_min.pdb
REMARK  20 active torsions:
REMARK  status: ('A' for Active; 'I' for Inactive)
REMARK    1  A    between atoms: N_1  and  CA_2
REMARK    2  A    between atoms: CA_2  and  C_3
REMARK    3  A    between atoms: CA_2  and  CB_5
REMARK    4  A    between atoms: CB_5  and  CG_6
REMARK    5  A    between atoms: CG_6  and  CD1_7
REMARK    6  A    between atoms: CG_6  and  CD2_8
REMARK    7  A    between atoms: N_9  and  CA_10
REMARK    8  A    between atoms: CA_10  and  C_11
REMARK    9  A    between atoms: CA_10  and  CB_13
REMARK   10  A    between atoms: CB_13  and  CG_14
REMARK   11  A    between atoms: N_17  and  CA_18
REMARK   12  A    between atoms: CA_18  and  C_19
REMARK   13  A    between atoms: CA_18  and  CB_21
REMARK   14  A    between atoms: CB_21  and  OG1_22
REMARK   15  A    between atoms: CB_21  and  CG2_23
REMARK   16  A    between atoms: N_24  and  CA_25
REMARK   17  A    between atoms: CA_25  and  C_26
REMARK   18  A    between atoms: CA_25  and  CB_29
REMARK   19  A    between atoms: CB_29  and  OG1_30
REMARK   20  A    between atoms: CB_29  and  CG2_31
REMARK                            x       y       z     vdW  Elec       q    Type
REMARK                         _______ _______ _______ _____ _____    ______ ____
ROOT
ATOM      1  C   ASP A   2      -0.061   2.071  -0.752  0.00  0.00    +0.235 C 
ATOM      2  O   ASP A   2       0.595   3.073  -0.483  0.00  0.00    -0.274 OA
ATOM      3  N   THR A   3      -1.114   1.648   0.048  0.00  0.00    -0.300 N 
ATOM      4  H   THR A   3      -1.923   1.338  -0.474  0.00  0.00    +0.150 HD
ENDROOT
BRANCH   3   5
ATOM      5  CA  THR A   3      -1.376   2.331   1.323  0.00  0.00    +0.187 C 
BRANCH   5   6
ATOM      6  C   THR A   3      -0.336   1.943   2.389  0.00  0.00    +0.237 C 
ATOM      7  O   THR A   3      -0.106   2.661   3.357  0.00  0.00    -0.274 OA
ATOM      8  N   THR A   4       0.042   0.614   2.301  0.00  0.00    -0.294 N 
ATOM      9  H   THR A   4       0.271   0.350   1.346  0.00  0.00    +0.150 HD
BRANCH   8  10
ATOM     10  CA  THR A   4       0.997   0.060   3.275  0.00  0.00    +0.241 C 
BRANCH  10  11
ATOM     11  C   THR A   4       2.457   0.559   3.103  0.00  0.00    +0.257 C 
ATOM     12  O   THR A   4       3.070   0.848   4.166  0.00  0.00    -0.203 OA
ATOM     13  OXT THR A   4       2.874   0.504   1.906  0.00  0.00    -0.203 OA
ENDBRANCH  10  11
BRANCH  10  14
ATOM     14  CB  THR A   4       1.132  -1.464   3.077  0.00  0.00    +0.149 C 
ATOM     15  CG2 THR A   4      -0.142  -2.206   3.463  0.00  0.00    +0.041 C 
BRANCH  14  16
ATOM     16  OG1 THR A   4       1.339  -1.804   1.694  0.00  0.00    -0.389 OA
ATOM     17  H   THR A   4       1.985  -1.117   1.356  0.00  0.00    +0.210 HD
ENDBRANCH  14  16
ENDBRANCH  10  14
ENDBRANCH   8  10
ENDBRANCH   5   6
BRANCH   5  18
ATOM     18  CB  THR A   3      -2.758   1.888   1.863  0.00  0.00    +0.141 C 
ATOM     19  CG2 THR A   3      -3.127   2.495   3.210  0.00  0.00    +0.040 C 
BRANCH  18  20
ATOM     20  OG1 THR A   3      -3.779   2.226   0.906  0.00  0.00    -0.390 OA
ATOM     21  H   THR A   3      -3.791   3.200   0.842  0.00  0.00    +0.210 HD
ENDBRANCH  18  20
ENDBRANCH   5  18
ENDBRANCH   3   5
BRANCH   1  22
ATOM     22  CA  ASP A   2       0.082   1.298  -2.081  0.00  0.00    +0.175 C 
BRANCH  22  25
ATOM     23  C   LEU A   1       0.379  -0.956  -1.195  0.00  0.00    +0.199 C 
ATOM     24  O   LEU A   1       1.380  -0.596  -0.611  0.00  0.00    -0.278 OA
ATOM     25  N   ASP A   2      -0.402  -0.101  -1.962  0.00  0.00    -0.304 N 
ATOM     26  H   ASP A   2      -0.466  -0.454  -2.923  0.00  0.00    +0.149 HD
BRANCH  23  27
ATOM     27  CA  LEU A   1      -0.148  -2.395  -1.119  0.00  0.00    +0.013 C 
BRANCH  27  28
ATOM     28  N   LEU A   1      -1.654  -2.395  -1.045  0.00  0.00    +0.386 N 
ATOM     29  H   LEU A   1      -1.932  -1.847  -0.219  0.00  0.00    -0.089 HD
ATOM     30  H   LEU A   1      -2.049  -3.335  -0.962  0.00  0.00    -0.089 HD
ATOM     31  H   LEU A   1      -2.039  -1.911  -1.865  0.00  0.00    -0.089 HD
ENDBRANCH  27  28
BRANCH  27  32
ATOM     32  CB  LEU A   1       0.310  -3.212  -2.326  0.00  0.00    -0.004 C 
BRANCH  32  33
ATOM     33  CG  LEU A   1      -0.009  -4.719  -2.261  0.00  0.00    -0.018 C 
ATOM     34  CD1 LEU A   1       0.427  -5.386  -3.568  0.00  0.00    +0.007 C 
ATOM     35  CD2 LEU A   1       0.672  -5.414  -1.079  0.00  0.00    +0.007 C 
ENDBRANCH  32  33
ENDBRANCH  27  32
ENDBRANCH  23  27
ENDBRANCH  22  25
BRANCH  22  36
ATOM     36  CB  ASP A   2      -0.722   2.020  -3.151  0.00  0.00    +0.189 C 
BRANCH  36  37
ATOM     37  CG  ASP A   2      -0.570   1.346  -4.508  0.00  0.00    +0.236 C 
ATOM     38  OD1 ASP A   2       0.047   0.238  -4.504  0.00  0.00    -0.205 OA
ATOM     39  OD2 ASP A   2      -1.223   1.885  -5.440  0.00  0.00    -0.205 OA
ENDBRANCH  36  37
ENDBRANCH  22  36
ENDBRANCH   1  22
TORSDOF 16
