MODEL 1
REMARK minimizedAffinity -7.05076885
REMARK minimizedRMSD -1
REMARK  Name = LDTT_min.pdb
REMARK  20 active torsions:
REMARK  status: ('A' for Active; 'I' for Inactive)
REMARK    1  A    between atoms: N_1  and  CA_2
REMARK    2  A    between atoms: CA_2  and  C_3
REMARK    3  A    between atoms: CA_2  and  CB_5
REMARK    4  A    between atoms: CB_5  and  CG_6
REMARK    5  A    between atoms: CG_6  and  CD1_7
REMARK    6  A    between atoms: CG_6  and  CD2_8
REMARK    7  A    between atoms: N_9  and  CA_10
REMARK    8  A    between atoms: CA_10  and  C_11
REMARK    9  A    between atoms: CA_10  and  CB_13
REMARK   10  A    between atoms: CB_13  and  CG_14
REMARK   11  A    between atoms: N_17  and  CA_18
REMARK   12  A    between atoms: CA_18  and  C_19
REMARK   13  A    between atoms: CA_18  and  CB_21
REMARK   14  A    between atoms: CB_21  and  OG1_22
REMARK   15  A    between atoms: CB_21  and  CG2_23
REMARK   16  A    between atoms: N_24  and  CA_25
REMARK   17  A    between atoms: CA_25  and  C_26
REMARK   18  A    between atoms: CA_25  and  CB_29
REMARK   19  A    between atoms: CB_29  and  OG1_30
REMARK   20  A    between atoms: CB_29  and  CG2_31
REMARK                            x       y       z     vdW  Elec       q    Type
REMARK                         _______ _______ _______ _____ _____    ______ ____
ROOT
ATOM      1  C   ASP A   2       6.866  -4.303 -10.940  0.00  0.00    +0.235 C 
ATOM      2  O   ASP A   2       7.502  -4.225  -9.893  0.00  0.00    -0.274 OA
ATOM      3  N   THR A   3       7.431  -3.978 -12.166  0.00  0.00    -0.300 N 
ATOM      4  H   THR A   3       7.189  -4.620 -12.909  0.00  0.00    +0.150 HD
ENDROOT
BRANCH   3   5
ATOM      5  CA  THR A   3       8.781  -3.397 -12.212  0.00  0.00    +0.187 C 
BRANCH   5   6
ATOM      6  C   THR A   3       8.877  -2.289 -13.276  0.00  0.00    +0.237 C 
ATOM      7  O   THR A   3       9.294  -1.168 -13.004  0.00  0.00    -0.274 OA
ATOM      8  N   THR A   4       8.757  -2.781 -14.565  0.00  0.00    -0.294 N 
ATOM      9  H   THR A   4       7.963  -3.410 -14.655  0.00  0.00    +0.150 HD
BRANCH   8  10
ATOM     10  CA  THR A   4       8.872  -1.864 -15.710  0.00  0.00    +0.241 C 
BRANCH  10  11
ATOM     11  C   THR A   4       7.612  -1.800 -16.615  0.00  0.00    +0.257 C 
ATOM     12  O   THR A   4       7.426  -0.713 -17.226  0.00  0.00    -0.203 OA
ATOM     13  OXT THR A   4       6.993  -2.904 -16.701  0.00  0.00    -0.203 OA
ENDBRANCH  10  11
BRANCH  10  14
ATOM     14  CB  THR A   4       9.964  -2.361 -16.680  0.00  0.00    +0.149 C 
ATOM     15  CG2 THR A   4      10.529  -3.713 -16.260  0.00  0.00    +0.041 C 
BRANCH  14  16
ATOM     16  OG1 THR A   4       9.438  -2.588 -18.001  0.00  0.00    -0.389 OA
ATOM     17  H   THR A   4       8.825  -1.814 -18.168  0.00  0.00    +0.210 HD
ENDBRANCH  14  16
ENDBRANCH  10  14
ENDBRANCH   8  10
ENDBRANCH   5   6
BRANCH   5  18
ATOM     18  CB  THR A   3       9.794  -4.496 -12.616  0.00  0.00    +0.141 C 
ATOM     19  CG2 THR A   3      10.489  -5.169 -11.440  0.00  0.00    +0.040 C 
BRANCH  18  20
ATOM     20  OG1 THR A   3       9.125  -5.503 -13.398  0.00  0.00    -0.390 OA
ATOM     21  H   THR A   3       8.464  -5.919 -12.812  0.00  0.00    +0.210 HD
ENDBRANCH  18  20
ENDBRANCH   5  18
ENDBRANCH   3   5
BRANCH   1  22
ATOM     22  CA  ASP A   2       5.463  -4.941 -11.033  0.00  0.00    +0.175 C 
BRANCH  22  25
ATOM     23  C   LEU A   1       4.549  -6.225  -9.171  0.00  0.00    +0.199 C 
ATOM     24  O   LEU A   1       4.911  -7.255  -9.701  0.00  0.00    -0.278 OA
ATOM     25  N   ASP A   2       4.780  -4.968  -9.714  0.00  0.00    -0.304 N 
ATOM     26  H   ASP A   2       3.890  -4.479  -9.854  0.00  0.00    +0.149 HD
BRANCH  23  27
ATOM     27  CA  LEU A   1       3.822  -6.205  -7.820  0.00  0.00    +0.013 C 
BRANCH  27  28
ATOM     28  N   LEU A   1       4.780  -6.546  -6.707  0.00  0.00    +0.386 N 
ATOM     29  H   LEU A   1       5.181  -7.474  -6.906  0.00  0.00    -0.089 HD
ATOM     30  H   LEU A   1       4.331  -6.575  -5.788  0.00  0.00    -0.089 HD
ATOM     31  H   LEU A   1       5.561  -5.879  -6.708  0.00  0.00    -0.089 HD
ENDBRANCH  27  28
BRANCH  27  32
ATOM     32  CB  LEU A   1       3.190  -4.839  -7.556  0.00  0.00    -0.004 C 
BRANCH  32  33
ATOM     33  CG  LEU A   1       1.684  -4.737  -7.871  0.00  0.00    -0.018 C 
ATOM     34  CD1 LEU A   1       1.134  -6.134  -8.169  0.00  0.00    +0.007 C 
ATOM     35  CD2 LEU A   1       0.886  -4.105  -6.728  0.00  0.00    +0.007 C 
ENDBRANCH  32  33
ENDBRANCH  27  32
ENDBRANCH  23  27
ENDBRANCH  22  25
BRANCH  22  36
ATOM     36  CB  ASP A   2       4.628  -4.136 -12.016  0.00  0.00    +0.189 C 
BRANCH  36  37
ATOM     37  CG  ASP A   2       3.191  -3.989 -11.533  0.00  0.00    +0.236 C 
ATOM     38  OD1 ASP A   2       2.407  -4.935 -11.849  0.00  0.00    -0.205 OA
ATOM     39  OD2 ASP A   2       2.998  -3.034 -10.736  0.00  0.00    -0.205 OA
ENDBRANCH  36  37
ENDBRANCH  22  36
ENDBRANCH   1  22
TORSDOF 16
ENDMDL
MODEL 2
REMARK minimizedAffinity -6.9508152
REMARK minimizedRMSD -1
REMARK  Name = LDTT_min.pdb
REMARK  20 active torsions:
REMARK  status: ('A' for Active; 'I' for Inactive)
REMARK    1  A    between atoms: N_1  and  CA_2
REMARK    2  A    between atoms: CA_2  and  C_3
REMARK    3  A    between atoms: CA_2  and  CB_5
REMARK    4  A    between atoms: CB_5  and  CG_6
REMARK    5  A    between atoms: CG_6  and  CD1_7
REMARK    6  A    between atoms: CG_6  and  CD2_8
REMARK    7  A    between atoms: N_9  and  CA_10
REMARK    8  A    between atoms: CA_10  and  C_11
REMARK    9  A    between atoms: CA_10  and  CB_13
REMARK   10  A    between atoms: CB_13  and  CG_14
REMARK   11  A    between atoms: N_17  and  CA_18
REMARK   12  A    between atoms: CA_18  and  C_19
REMARK   13  A    between atoms: CA_18  and  CB_21
REMARK   14  A    between atoms: CB_21  and  OG1_22
REMARK   15  A    between atoms: CB_21  and  CG2_23
REMARK   16  A    between atoms: N_24  and  CA_25
REMARK   17  A    between atoms: CA_25  and  C_26
REMARK   18  A    between atoms: CA_25  and  CB_29
REMARK   19  A    between atoms: CB_29  and  OG1_30
REMARK   20  A    between atoms: CB_29  and  CG2_31
REMARK                            x       y       z     vdW  Elec       q    Type
REMARK                         _______ _______ _______ _____ _____    ______ ____
ROOT
ATOM      1  C   ASP A   2       6.878  -4.065 -12.464  0.00  0.00    +0.235 C 
ATOM      2  O   ASP A   2       6.825  -2.903 -12.856  0.00  0.00    -0.274 OA
ATOM      3  N   THR A   3       8.087  -4.715 -12.258  0.00  0.00    -0.300 N 
ATOM      4  H   THR A   3       8.110  -5.275 -11.415  0.00  0.00    +0.150 HD
ENDROOT
BRANCH   3   5
ATOM      5  CA  THR A   3       9.341  -4.052 -12.642  0.00  0.00    +0.187 C 
BRANCH   5   6
ATOM      6  C   THR A   3       9.733  -4.393 -14.091  0.00  0.00    +0.237 C 
ATOM      7  O   THR A   3      10.250  -5.466 -14.383  0.00  0.00    -0.274 OA
ATOM      8  N   THR A   4       9.162  -3.530 -15.010  0.00  0.00    -0.294 N 
ATOM      9  H   THR A   4       9.282  -2.557 -14.739  0.00  0.00    +0.150 HD
BRANCH   8  10
ATOM     10  CA  THR A   4       9.394  -3.738 -16.449  0.00  0.00    +0.241 C 
BRANCH  10  11
ATOM     11  C   THR A   4      10.101  -2.557 -17.167  0.00  0.00    +0.257 C 
ATOM     12  O   THR A   4      10.814  -2.863 -18.161  0.00  0.00    -0.203 OA
ATOM     13  OXT THR A   4       9.774  -1.419 -16.713  0.00  0.00    -0.203 OA
ENDBRANCH  10  11
BRANCH  10  14
ATOM     14  CB  THR A   4       8.046  -3.832 -17.195  0.00  0.00    +0.149 C 
ATOM     15  CG2 THR A   4       6.860  -3.617 -16.262  0.00  0.00    +0.041 C 
BRANCH  14  16
ATOM     16  OG1 THR A   4       7.914  -2.798 -18.186  0.00  0.00    -0.389 OA
ATOM     17  H   THR A   4       8.814  -2.745 -18.622  0.00  0.00    +0.210 HD
ENDBRANCH  14  16
ENDBRANCH  10  14
ENDBRANCH   8  10
ENDBRANCH   5   6
BRANCH   5  18
ATOM     18  CB  THR A   3      10.487  -4.566 -11.735  0.00  0.00    +0.141 C 
ATOM     19  CG2 THR A   3      10.902  -3.593 -10.640  0.00  0.00    +0.040 C 
BRANCH  18  20
ATOM     20  OG1 THR A   3      10.096  -5.811 -11.127  0.00  0.00    -0.390 OA
ATOM     21  H   THR A   3       9.335  -5.613 -10.548  0.00  0.00    +0.210 HD
ENDBRANCH  18  20
ENDBRANCH   5  18
ENDBRANCH   3   5
BRANCH   1  22
ATOM     22  CA  ASP A   2       5.639  -4.851 -11.981  0.00  0.00    +0.175 C 
BRANCH  22  25
ATOM     23  C   LEU A   1       6.061  -5.564  -9.686  0.00  0.00    +0.199 C 
ATOM     24  O   LEU A   1       6.821  -6.419 -10.090  0.00  0.00    -0.278 OA
ATOM     25  N   ASP A   2       5.404  -4.673 -10.525  0.00  0.00    -0.304 N 
ATOM     26  H   ASP A   2       4.390  -4.755 -10.397  0.00  0.00    +0.149 HD
BRANCH  23  27
ATOM     27  CA  LEU A   1       5.770  -5.356  -8.194  0.00  0.00    +0.013 C 
BRANCH  27  28
ATOM     28  N   LEU A   1       6.775  -4.405  -7.595  0.00  0.00    +0.386 N 
ATOM     29  H   LEU A   1       7.715  -4.799  -7.745  0.00  0.00    -0.089 HD
ATOM     30  H   LEU A   1       6.638  -4.260  -6.591  0.00  0.00    -0.089 HD
ATOM     31  H   LEU A   1       6.745  -3.510  -8.098  0.00  0.00    -0.089 HD
ENDBRANCH  27  28
BRANCH  27  32
ATOM     32  CB  LEU A   1       4.357  -4.816  -7.979  0.00  0.00    -0.004 C 
BRANCH  32  33
ATOM     33  CG  LEU A   1       3.435  -5.705  -7.121  0.00  0.00    -0.018 C 
ATOM     34  CD1 LEU A   1       2.512  -6.512  -8.037  0.00  0.00    +0.007 C 
ATOM     35  CD2 LEU A   1       4.217  -6.658  -6.212  0.00  0.00    +0.007 C 
ENDBRANCH  32  33
ENDBRANCH  27  32
ENDBRANCH  23  27
ENDBRANCH  22  25
BRANCH  22  36
ATOM     36  CB  ASP A   2       4.423  -4.361 -12.752  0.00  0.00    +0.189 C 
BRANCH  36  37
ATOM     37  CG  ASP A   2       3.229  -4.155 -11.830  0.00  0.00    +0.236 C 
ATOM     38  OD1 ASP A   2       2.606  -5.208 -11.495  0.00  0.00    -0.205 OA
ATOM     39  OD2 ASP A   2       3.110  -2.987 -11.375  0.00  0.00    -0.205 OA
ENDBRANCH  36  37
ENDBRANCH  22  36
ENDBRANCH   1  22
TORSDOF 16
ENDMDL
MODEL 3
REMARK minimizedAffinity -6.90117407
REMARK minimizedRMSD -1
REMARK  Name = LDTT_min.pdb
REMARK  20 active torsions:
REMARK  status: ('A' for Active; 'I' for Inactive)
REMARK    1  A    between atoms: N_1  and  CA_2
REMARK    2  A    between atoms: CA_2  and  C_3
REMARK    3  A    between atoms: CA_2  and  CB_5
REMARK    4  A    between atoms: CB_5  and  CG_6
REMARK    5  A    between atoms: CG_6  and  CD1_7
REMARK    6  A    between atoms: CG_6  and  CD2_8
REMARK    7  A    between atoms: N_9  and  CA_10
REMARK    8  A    between atoms: CA_10  and  C_11
REMARK    9  A    between atoms: CA_10  and  CB_13
REMARK   10  A    between atoms: CB_13  and  CG_14
REMARK   11  A    between atoms: N_17  and  CA_18
REMARK   12  A    between atoms: CA_18  and  C_19
REMARK   13  A    between atoms: CA_18  and  CB_21
REMARK   14  A    between atoms: CB_21  and  OG1_22
REMARK   15  A    between atoms: CB_21  and  CG2_23
REMARK   16  A    between atoms: N_24  and  CA_25
REMARK   17  A    between atoms: CA_25  and  C_26
REMARK   18  A    between atoms: CA_25  and  CB_29
REMARK   19  A    between atoms: CB_29  and  OG1_30
REMARK   20  A    between atoms: CB_29  and  CG2_31
REMARK                            x       y       z     vdW  Elec       q    Type
REMARK                         _______ _______ _______ _____ _____    ______ ____
ROOT
ATOM      1  C   ASP A   2       5.506  -4.185 -12.870  0.00  0.00    +0.235 C 
ATOM      2  O   ASP A   2       5.325  -2.973 -12.943  0.00  0.00    -0.274 OA
ATOM      3  N   THR A   3       4.521  -5.046 -12.405  0.00  0.00    -0.300 N 
ATOM      4  H   THR A   3       4.441  -5.901 -12.941  0.00  0.00    +0.150 HD
ENDROOT
BRANCH   3   5
ATOM      5  CA  THR A   3       3.274  -4.493 -11.857  0.00  0.00    +0.187 C 
BRANCH   5   6
ATOM      6  C   THR A   3       3.450  -4.065 -10.390  0.00  0.00    +0.237 C 
ATOM      7  O   THR A   3       2.818  -3.128  -9.911  0.00  0.00    -0.274 OA
ATOM      8  N   THR A   4       4.118  -5.015  -9.637  0.00  0.00    -0.294 N 
ATOM      9  H   THR A   4       4.961  -5.341 -10.104  0.00  0.00    +0.150 HD
BRANCH   8  10
ATOM     10  CA  THR A   4       4.333  -4.789  -8.198  0.00  0.00    +0.241 C 
BRANCH  10  11
ATOM     11  C   THR A   4       5.685  -5.324  -7.655  0.00  0.00    +0.257 C 
ATOM     12  O   THR A   4       5.684  -6.519  -7.253  0.00  0.00    -0.203 OA
ATOM     13  OXT THR A   4       6.646  -4.506  -7.792  0.00  0.00    -0.203 OA
ENDBRANCH  10  11
BRANCH  10  14
ATOM     14  CB  THR A   4       3.297  -5.584  -7.376  0.00  0.00    +0.149 C 
ATOM     15  CG2 THR A   4       2.107  -4.723  -6.969  0.00  0.00    +0.041 C 
BRANCH  14  16
ATOM     16  OG1 THR A   4       2.717  -6.654  -8.144  0.00  0.00    -0.389 OA
ATOM     17  H   THR A   4       3.486  -7.053  -8.647  0.00  0.00    +0.210 HD
ENDBRANCH  14  16
ENDBRANCH  10  14
ENDBRANCH   8  10
ENDBRANCH   5   6
BRANCH   5  18
ATOM     18  CB  THR A   3       2.180  -5.589 -11.877  0.00  0.00    +0.141 C 
ATOM     19  CG2 THR A   3       2.700  -6.987 -12.185  0.00  0.00    +0.040 C 
BRANCH  18  20
ATOM     20  OG1 THR A   3       1.503  -5.615 -10.606  0.00  0.00    -0.390 OA
ATOM     21  H   THR A   3       2.167  -5.879  -9.941  0.00  0.00    +0.210 HD
ENDBRANCH  18  20
ENDBRANCH   5  18
ENDBRANCH   3   5
BRANCH   1  22
ATOM     22  CA  ASP A   2       6.748  -4.892 -13.456  0.00  0.00    +0.175 C 
BRANCH  22  25
ATOM     23  C   LEU A   1       7.145  -4.319 -15.794  0.00  0.00    +0.199 C 
ATOM     24  O   LEU A   1       6.341  -5.160 -16.139  0.00  0.00    -0.278 OA
ATOM     25  N   ASP A   2       7.440  -4.049 -14.464  0.00  0.00    -0.304 N 
ATOM     26  H   ASP A   2       8.443  -4.183 -14.294  0.00  0.00    +0.149 HD
BRANCH  23  27
ATOM     27  CA  LEU A   1       7.900  -3.439 -16.799  0.00  0.00    +0.013 C 
BRANCH  27  28
ATOM     28  N   LEU A   1       7.476  -3.774 -18.207  0.00  0.00    +0.386 N 
ATOM     29  H   LEU A   1       7.663  -4.774 -18.366  0.00  0.00    -0.089 HD
ATOM     30  H   LEU A   1       7.977  -3.231 -18.914  0.00  0.00    -0.089 HD
ATOM     31  H   LEU A   1       6.462  -3.643 -18.301  0.00  0.00    -0.089 HD
ENDBRANCH  27  28
BRANCH  27  32
ATOM     32  CB  LEU A   1       7.654  -1.956 -16.524  0.00  0.00    -0.004 C 
BRANCH  32  33
ATOM     33  CG  LEU A   1       8.640  -0.987 -17.206  0.00  0.00    -0.018 C 
ATOM     34  CD1 LEU A   1       7.887  -0.135 -18.231  0.00  0.00    +0.007 C 
ATOM     35  CD2 LEU A   1       9.353  -0.073 -16.206  0.00  0.00    +0.007 C 
ENDBRANCH  32  33
ENDBRANCH  27  32
ENDBRANCH  23  27
ENDBRANCH  22  25
BRANCH  22  36
ATOM     36  CB  ASP A   2       7.707  -5.209 -12.319  0.00  0.00    +0.189 C 
BRANCH  36  37
ATOM     37  CG  ASP A   2       9.005  -4.425 -12.455  0.00  0.00    +0.236 C 
ATOM     38  OD1 ASP A   2       9.041  -3.313 -11.845  0.00  0.00    -0.205 OA
ATOM     39  OD2 ASP A   2       9.944  -5.052 -13.013  0.00  0.00    -0.205 OA
ENDBRANCH  36  37
ENDBRANCH  22  36
ENDBRANCH   1  22
TORSDOF 16
ENDMDL
MODEL 4
REMARK minimizedAffinity -6.85988712
REMARK minimizedRMSD -1
REMARK  Name = LDTT_min.pdb
REMARK  20 active torsions:
REMARK  status: ('A' for Active; 'I' for Inactive)
REMARK    1  A    between atoms: N_1  and  CA_2
REMARK    2  A    between atoms: CA_2  and  C_3
REMARK    3  A    between atoms: CA_2  and  CB_5
REMARK    4  A    between atoms: CB_5  and  CG_6
REMARK    5  A    between atoms: CG_6  and  CD1_7
REMARK    6  A    between atoms: CG_6  and  CD2_8
REMARK    7  A    between atoms: N_9  and  CA_10
REMARK    8  A    between atoms: CA_10  and  C_11
REMARK    9  A    between atoms: CA_10  and  CB_13
REMARK   10  A    between atoms: CB_13  and  CG_14
REMARK   11  A    between atoms: N_17  and  CA_18
REMARK   12  A    between atoms: CA_18  and  C_19
REMARK   13  A    between atoms: CA_18  and  CB_21
REMARK   14  A    between atoms: CB_21  and  OG1_22
REMARK   15  A    between atoms: CB_21  and  CG2_23
REMARK   16  A    between atoms: N_24  and  CA_25
REMARK   17  A    between atoms: CA_25  and  C_26
REMARK   18  A    between atoms: CA_25  and  CB_29
REMARK   19  A    between atoms: CB_29  and  OG1_30
REMARK   20  A    between atoms: CB_29  and  CG2_31
REMARK                            x       y       z     vdW  Elec       q    Type
REMARK                         _______ _______ _______ _____ _____    ______ ____
ROOT
ATOM      1  C   ASP A   2       7.009  -4.282 -10.761  0.00  0.00    +0.235 C 
ATOM      2  O   ASP A   2       7.717  -4.173  -9.764  0.00  0.00    -0.274 OA
ATOM      3  N   THR A   3       7.493  -4.020 -12.035  0.00  0.00    -0.300 N 
ATOM      4  H   THR A   3       7.189  -4.687 -12.732  0.00  0.00    +0.150 HD
ENDROOT
BRANCH   3   5
ATOM      5  CA  THR A   3       8.846  -3.468 -12.199  0.00  0.00    +0.187 C 
BRANCH   5   6
ATOM      6  C   THR A   3       8.875  -2.370 -13.276  0.00  0.00    +0.237 C 
ATOM      7  O   THR A   3       9.263  -1.233 -13.028  0.00  0.00    -0.274 OA
ATOM      8  N   THR A   4       8.735  -2.880 -14.556  0.00  0.00    -0.294 N 
ATOM      9  H   THR A   4       7.960  -3.535 -14.617  0.00  0.00    +0.150 HD
BRANCH   8  10
ATOM     10  CA  THR A   4       8.787  -1.972 -15.714  0.00  0.00    +0.241 C 
BRANCH  10  11
ATOM     11  C   THR A   4       7.513  -1.983 -16.601  0.00  0.00    +0.257 C 
ATOM     12  O   THR A   4       6.948  -3.101 -16.741  0.00  0.00    -0.203 OA
ATOM     13  OXT THR A   4       7.150  -0.828 -16.981  0.00  0.00    -0.203 OA
ENDBRANCH  10  11
BRANCH  10  14
ATOM     14  CB  THR A   4       9.889  -2.426 -16.694  0.00  0.00    +0.149 C 
ATOM     15  CG2 THR A   4      10.339  -3.857 -16.425  0.00  0.00    +0.041 C 
BRANCH  14  16
ATOM     16  OG1 THR A   4       9.415  -2.449 -18.052  0.00  0.00    -0.389 OA
ATOM     17  H   THR A   4       8.865  -1.617 -18.145  0.00  0.00    +0.210 HD
ENDBRANCH  14  16
ENDBRANCH  10  14
ENDBRANCH   8  10
ENDBRANCH   5   6
BRANCH   5  18
ATOM     18  CB  THR A   3       9.798  -4.591 -12.677  0.00  0.00    +0.141 C 
ATOM     19  CG2 THR A   3      10.507  -5.332 -11.551  0.00  0.00    +0.040 C 
BRANCH  18  20
ATOM     20  OG1 THR A   3       9.062  -5.543 -13.466  0.00  0.00    -0.390 OA
ATOM     21  H   THR A   3       8.406  -5.953 -12.871  0.00  0.00    +0.210 HD
ENDBRANCH  18  20
ENDBRANCH   5  18
ENDBRANCH   3   5
BRANCH   1  22
ATOM     22  CA  ASP A   2       5.593  -4.895 -10.729  0.00  0.00    +0.175 C 
BRANCH  22  25
ATOM     23  C   LEU A   1       4.955  -6.061  -8.682  0.00  0.00    +0.199 C 
ATOM     24  O   LEU A   1       5.401  -7.097  -9.131  0.00  0.00    -0.278 OA
ATOM     25  N   ASP A   2       5.002  -4.853  -9.367  0.00  0.00    -0.304 N 
ATOM     26  H   ASP A   2       4.053  -4.483  -9.488  0.00  0.00    +0.149 HD
BRANCH  23  27
ATOM     27  CA  LEU A   1       4.317  -5.973  -7.289  0.00  0.00    +0.013 C 
BRANCH  27  28
ATOM     28  N   LEU A   1       3.042  -5.170  -7.350  0.00  0.00    +0.386 N 
ATOM     29  H   LEU A   1       3.271  -4.237  -7.720  0.00  0.00    -0.089 HD
ATOM     30  H   LEU A   1       2.597  -5.059  -6.436  0.00  0.00    -0.089 HD
ATOM     31  H   LEU A   1       2.394  -5.604  -8.019  0.00  0.00    -0.089 HD
ENDBRANCH  27  28
BRANCH  27  32
ATOM     32  CB  LEU A   1       4.025  -7.365  -6.730  0.00  0.00    -0.004 C 
BRANCH  32  33
ATOM     33  CG  LEU A   1       4.973  -7.836  -5.609  0.00  0.00    -0.018 C 
ATOM     34  CD1 LEU A   1       5.615  -9.166  -6.014  0.00  0.00    +0.007 C 
ATOM     35  CD2 LEU A   1       6.068  -6.813  -5.295  0.00  0.00    +0.007 C 
ENDBRANCH  32  33
ENDBRANCH  27  32
ENDBRANCH  23  27
ENDBRANCH  22  25
BRANCH  22  36
ATOM     36  CB  ASP A   2       4.705  -4.117 -11.687  0.00  0.00    +0.189 C 
BRANCH  36  37
ATOM     37  CG  ASP A   2       3.262  -4.082 -11.202  0.00  0.00    +0.236 C 
ATOM     38  OD1 ASP A   2       2.610  -5.161 -11.342  0.00  0.00    -0.205 OA
ATOM     39  OD2 ASP A   2       2.944  -3.042 -10.566  0.00  0.00    -0.205 OA
ENDBRANCH  36  37
ENDBRANCH  22  36
ENDBRANCH   1  22
TORSDOF 16
ENDMDL
MODEL 5
REMARK minimizedAffinity -6.83352327
REMARK minimizedRMSD -1
REMARK  Name = LDTT_min.pdb
REMARK  20 active torsions:
REMARK  status: ('A' for Active; 'I' for Inactive)
REMARK    1  A    between atoms: N_1  and  CA_2
REMARK    2  A    between atoms: CA_2  and  C_3
REMARK    3  A    between atoms: CA_2  and  CB_5
REMARK    4  A    between atoms: CB_5  and  CG_6
REMARK    5  A    between atoms: CG_6  and  CD1_7
REMARK    6  A    between atoms: CG_6  and  CD2_8
REMARK    7  A    between atoms: N_9  and  CA_10
REMARK    8  A    between atoms: CA_10  and  C_11
REMARK    9  A    between atoms: CA_10  and  CB_13
REMARK   10  A    between atoms: CB_13  and  CG_14
REMARK   11  A    between atoms: N_17  and  CA_18
REMARK   12  A    between atoms: CA_18  and  C_19
REMARK   13  A    between atoms: CA_18  and  CB_21
REMARK   14  A    between atoms: CB_21  and  OG1_22
REMARK   15  A    between atoms: CB_21  and  CG2_23
REMARK   16  A    between atoms: N_24  and  CA_25
REMARK   17  A    between atoms: CA_25  and  C_26
REMARK   18  A    between atoms: CA_25  and  CB_29
REMARK   19  A    between atoms: CB_29  and  OG1_30
REMARK   20  A    between atoms: CB_29  and  CG2_31
REMARK                            x       y       z     vdW  Elec       q    Type
REMARK                         _______ _______ _______ _____ _____    ______ ____
ROOT
ATOM      1  C   ASP A   2       7.534  -4.312 -11.037  0.00  0.00    +0.235 C 
ATOM      2  O   ASP A   2       8.518  -4.617 -10.370  0.00  0.00    -0.274 OA
ATOM      3  N   THR A   3       7.639  -3.947 -12.373  0.00  0.00    -0.300 N 
ATOM      4  H   THR A   3       6.917  -4.343 -12.961  0.00  0.00    +0.150 HD
ENDROOT
BRANCH   3   5
ATOM      5  CA  THR A   3       8.968  -3.790 -12.979  0.00  0.00    +0.187 C 
BRANCH   5   6
ATOM      6  C   THR A   3       9.054  -2.497 -13.811  0.00  0.00    +0.237 C 
ATOM      7  O   THR A   3       9.090  -1.391 -13.281  0.00  0.00    -0.274 OA
ATOM      8  N   THR A   4       9.398  -2.738 -15.130  0.00  0.00    -0.294 N 
ATOM      9  H   THR A   4       8.839  -3.486 -15.534  0.00  0.00    +0.150 HD
BRANCH   8  10
ATOM     10  CA  THR A   4       9.569  -1.608 -16.058  0.00  0.00    +0.241 C 
BRANCH  10  11
ATOM     11  C   THR A   4       8.243  -0.962 -16.540  0.00  0.00    +0.257 C 
ATOM     12  O   THR A   4       7.195  -1.630 -16.330  0.00  0.00    -0.203 OA
ATOM     13  OXT THR A   4       8.387   0.216 -16.989  0.00  0.00    -0.203 OA
ENDBRANCH  10  11
BRANCH  10  14
ATOM     14  CB  THR A   4      10.209  -2.096 -17.375  0.00  0.00    +0.149 C 
ATOM     15  CG2 THR A   4      10.568  -3.576 -17.322  0.00  0.00    +0.041 C 
BRANCH  14  16
ATOM     16  OG1 THR A   4       9.295  -1.989 -18.481  0.00  0.00    -0.389 OA
ATOM     17  H   THR A   4       8.840  -1.106 -18.352  0.00  0.00    +0.210 HD
ENDBRANCH  14  16
ENDBRANCH  10  14
ENDBRANCH   8  10
ENDBRANCH   5   6
BRANCH   5  18
ATOM     18  CB  THR A   3       9.227  -4.966 -13.952  0.00  0.00    +0.141 C 
ATOM     19  CG2 THR A   3       9.892  -6.175 -13.308  0.00  0.00    +0.040 C 
BRANCH  18  20
ATOM     20  OG1 THR A   3       7.983  -5.382 -14.546  0.00  0.00    -0.390 OA
ATOM     21  H   THR A   3       7.426  -5.722 -13.820  0.00  0.00    +0.210 HD
ENDBRANCH  18  20
ENDBRANCH   5  18
ENDBRANCH   3   5
BRANCH   1  22
ATOM     22  CA  ASP A   2       6.085  -4.483 -10.534  0.00  0.00    +0.175 C 
BRANCH  22  25
ATOM     23  C   LEU A   1       3.969  -4.369 -11.745  0.00  0.00    +0.199 C 
ATOM     24  O   LEU A   1       3.646  -3.399 -11.091  0.00  0.00    -0.278 OA
ATOM     25  N   ASP A   2       5.190  -5.015 -11.593  0.00  0.00    -0.304 N 
ATOM     26  H   ASP A   2       5.037  -6.001 -11.356  0.00  0.00    +0.149 HD
BRANCH  23  27
ATOM     27  CA  LEU A   1       3.070  -4.967 -12.835  0.00  0.00    +0.013 C 
BRANCH  27  28
ATOM     28  N   LEU A   1       3.795  -6.072 -13.560  0.00  0.00    +0.386 N 
ATOM     29  H   LEU A   1       4.660  -5.679 -13.957  0.00  0.00    -0.089 HD
ATOM     30  H   LEU A   1       3.243  -6.481 -14.319  0.00  0.00    -0.089 HD
ATOM     31  H   LEU A   1       4.080  -6.796 -12.889  0.00  0.00    -0.089 HD
ENDBRANCH  27  28
BRANCH  27  32
ATOM     32  CB  LEU A   1       1.770  -5.504 -12.241  0.00  0.00    -0.004 C 
BRANCH  32  33
ATOM     33  CG  LEU A   1       1.923  -6.732 -11.322  0.00  0.00    -0.018 C 
ATOM     34  CD1 LEU A   1       1.499  -6.357  -9.900  0.00  0.00    +0.007 C 
ATOM     35  CD2 LEU A   1       1.102  -7.932 -11.801  0.00  0.00    +0.007 C 
ENDBRANCH  32  33
ENDBRANCH  27  32
ENDBRANCH  23  27
ENDBRANCH  22  25
BRANCH  22  36
ATOM     36  CB  ASP A   2       6.091  -5.441  -9.353  0.00  0.00    +0.189 C 
BRANCH  36  37
ATOM     37  CG  ASP A   2       5.791  -4.715  -8.048  0.00  0.00    +0.236 C 
ATOM     38  OD1 ASP A   2       6.765  -4.606  -7.244  0.00  0.00    -0.205 OA
ATOM     39  OD2 ASP A   2       4.660  -4.164  -8.001  0.00  0.00    -0.205 OA
ENDBRANCH  36  37
ENDBRANCH  22  36
ENDBRANCH   1  22
TORSDOF 16
ENDMDL
MODEL 6
REMARK minimizedAffinity -6.74719906
REMARK minimizedRMSD -1
REMARK  Name = LDTT_min.pdb
REMARK  20 active torsions:
REMARK  status: ('A' for Active; 'I' for Inactive)
REMARK    1  A    between atoms: N_1  and  CA_2
REMARK    2  A    between atoms: CA_2  and  C_3
REMARK    3  A    between atoms: CA_2  and  CB_5
REMARK    4  A    between atoms: CB_5  and  CG_6
REMARK    5  A    between atoms: CG_6  and  CD1_7
REMARK    6  A    between atoms: CG_6  and  CD2_8
REMARK    7  A    between atoms: N_9  and  CA_10
REMARK    8  A    between atoms: CA_10  and  C_11
REMARK    9  A    between atoms: CA_10  and  CB_13
REMARK   10  A    between atoms: CB_13  and  CG_14
REMARK   11  A    between atoms: N_17  and  CA_18
REMARK   12  A    between atoms: CA_18  and  C_19
REMARK   13  A    between atoms: CA_18  and  CB_21
REMARK   14  A    between atoms: CB_21  and  OG1_22
REMARK   15  A    between atoms: CB_21  and  CG2_23
REMARK   16  A    between atoms: N_24  and  CA_25
REMARK   17  A    between atoms: CA_25  and  C_26
REMARK   18  A    between atoms: CA_25  and  CB_29
REMARK   19  A    between atoms: CB_29  and  OG1_30
REMARK   20  A    between atoms: CB_29  and  CG2_31
REMARK                            x       y       z     vdW  Elec       q    Type
REMARK                         _______ _______ _______ _____ _____    ______ ____
ROOT
ATOM      1  C   ASP A   2       4.966  -4.361 -12.531  0.00  0.00    +0.235 C 
ATOM      2  O   ASP A   2       4.486  -3.231 -12.496  0.00  0.00    -0.274 OA
ATOM      3  N   THR A   3       4.172  -5.490 -12.680  0.00  0.00    -0.300 N 
ATOM      4  H   THR A   3       4.556  -6.177 -13.316  0.00  0.00    +0.150 HD
ENDROOT
BRANCH   3   5
ATOM      5  CA  THR A   3       2.709  -5.355 -12.662  0.00  0.00    +0.187 C 
BRANCH   5   6
ATOM      6  C   THR A   3       2.142  -5.594 -11.251  0.00  0.00    +0.237 C 
ATOM      7  O   THR A   3       1.354  -6.505 -11.018  0.00  0.00    -0.274 OA
ATOM      8  N   THR A   4       2.844  -4.906 -10.275  0.00  0.00    -0.294 N 
ATOM      9  H   THR A   4       2.990  -3.933 -10.532  0.00  0.00    +0.150 HD
BRANCH   8  10
ATOM     10  CA  THR A   4       2.466  -5.057  -8.860  0.00  0.00    +0.241 C 
BRANCH  10  11
ATOM     11  C   THR A   4       2.260  -3.719  -8.101  0.00  0.00    +0.257 C 
ATOM     12  O   THR A   4       2.522  -2.671  -8.750  0.00  0.00    -0.203 OA
ATOM     13  OXT THR A   4       1.747  -3.863  -6.949  0.00  0.00    -0.203 OA
ENDBRANCH  10  11
BRANCH  10  14
ATOM     14  CB  THR A   4       3.614  -5.723  -8.073  0.00  0.00    +0.149 C 
ATOM     15  CG2 THR A   4       4.347  -6.768  -8.905  0.00  0.00    +0.041 C 
BRANCH  14  16
ATOM     16  OG1 THR A   4       4.633  -4.772  -7.714  0.00  0.00    -0.389 OA
ATOM     17  H   THR A   4       4.130  -3.956  -7.425  0.00  0.00    +0.210 HD
ENDBRANCH  14  16
ENDBRANCH  10  14
ENDBRANCH   8  10
ENDBRANCH   5   6
BRANCH   5  18
ATOM     18  CB  THR A   3       2.087  -6.433 -13.583  0.00  0.00    +0.141 C 
ATOM     19  CG2 THR A   3       2.145  -6.097 -15.067  0.00  0.00    +0.040 C 
BRANCH  18  20
ATOM     20  OG1 THR A   3       2.750  -7.692 -13.365  0.00  0.00    -0.390 OA
ATOM     21  H   THR A   3       3.678  -7.572 -13.644  0.00  0.00    +0.210 HD
ENDBRANCH  18  20
ENDBRANCH   5  18
ENDBRANCH   3   5
BRANCH   1  22
ATOM     22  CA  ASP A   2       6.484  -4.632 -12.608  0.00  0.00    +0.175 C 
BRANCH  22  25
ATOM     23  C   LEU A   1       8.281  -3.313 -13.601  0.00  0.00    +0.199 C 
ATOM     24  O   LEU A   1       8.501  -4.206 -14.392  0.00  0.00    -0.278 OA
ATOM     25  N   ASP A   2       7.270  -3.373 -12.649  0.00  0.00    -0.304 N 
ATOM     26  H   ASP A   2       7.668  -3.265 -11.710  0.00  0.00    +0.149 HD
BRANCH  23  27
ATOM     27  CA  LEU A   1       9.079  -2.003 -13.591  0.00  0.00    +0.013 C 
BRANCH  27  28
ATOM     28  N   LEU A   1       9.848  -1.871 -12.300  0.00  0.00    +0.386 N 
ATOM     29  H   LEU A   1       9.173  -1.907 -11.523  0.00  0.00    -0.089 HD
ATOM     30  H   LEU A   1      10.372  -0.995 -12.237  0.00  0.00    -0.089 HD
ATOM     31  H   LEU A   1      10.473  -2.677 -12.188  0.00  0.00    -0.089 HD
ENDBRANCH  27  28
BRANCH  27  32
ATOM     32  CB  LEU A   1      10.043  -1.938 -14.775  0.00  0.00    -0.004 C 
BRANCH  32  33
ATOM     33  CG  LEU A   1       9.784  -0.793 -15.773  0.00  0.00    -0.018 C 
ATOM     34  CD1 LEU A   1       8.548  -1.122 -16.614  0.00  0.00    +0.007 C 
ATOM     35  CD2 LEU A   1       9.588   0.558 -15.081  0.00  0.00    +0.007 C 
ENDBRANCH  32  33
ENDBRANCH  27  32
ENDBRANCH  23  27
ENDBRANCH  22  25
BRANCH  22  36
ATOM     36  CB  ASP A   2       6.894  -5.443 -11.389  0.00  0.00    +0.189 C 
BRANCH  36  37
ATOM     37  CG  ASP A   2       7.436  -4.546 -10.284  0.00  0.00    +0.236 C 
ATOM     38  OD1 ASP A   2       8.672  -4.270 -10.358  0.00  0.00    -0.205 OA
ATOM     39  OD2 ASP A   2       6.558  -4.050  -9.530  0.00  0.00    -0.205 OA
ENDBRANCH  36  37
ENDBRANCH  22  36
ENDBRANCH   1  22
TORSDOF 16
ENDMDL
MODEL 7
REMARK minimizedAffinity -6.69398022
REMARK minimizedRMSD -1
REMARK  Name = LDTT_min.pdb
REMARK  20 active torsions:
REMARK  status: ('A' for Active; 'I' for Inactive)
REMARK    1  A    between atoms: N_1  and  CA_2
REMARK    2  A    between atoms: CA_2  and  C_3
REMARK    3  A    between atoms: CA_2  and  CB_5
REMARK    4  A    between atoms: CB_5  and  CG_6
REMARK    5  A    between atoms: CG_6  and  CD1_7
REMARK    6  A    between atoms: CG_6  and  CD2_8
REMARK    7  A    between atoms: N_9  and  CA_10
REMARK    8  A    between atoms: CA_10  and  C_11
REMARK    9  A    between atoms: CA_10  and  CB_13
REMARK   10  A    between atoms: CB_13  and  CG_14
REMARK   11  A    between atoms: N_17  and  CA_18
REMARK   12  A    between atoms: CA_18  and  C_19
REMARK   13  A    between atoms: CA_18  and  CB_21
REMARK   14  A    between atoms: CB_21  and  OG1_22
REMARK   15  A    between atoms: CB_21  and  CG2_23
REMARK   16  A    between atoms: N_24  and  CA_25
REMARK   17  A    between atoms: CA_25  and  C_26
REMARK   18  A    between atoms: CA_25  and  CB_29
REMARK   19  A    between atoms: CB_29  and  OG1_30
REMARK   20  A    between atoms: CB_29  and  CG2_31
REMARK                            x       y       z     vdW  Elec       q    Type
REMARK                         _______ _______ _______ _____ _____    ______ ____
ROOT
ATOM      1  C   ASP A   2       6.166  -4.135 -13.265  0.00  0.00    +0.235 C 
ATOM      2  O   ASP A   2       5.620  -3.036 -13.245  0.00  0.00    -0.274 OA
ATOM      3  N   THR A   3       5.438  -5.316 -13.204  0.00  0.00    -0.300 N 
ATOM      4  H   THR A   3       5.770  -6.033 -13.836  0.00  0.00    +0.150 HD
ENDROOT
BRANCH   3   5
ATOM      5  CA  THR A   3       3.987  -5.263 -12.974  0.00  0.00    +0.187 C 
BRANCH   5   6
ATOM      6  C   THR A   3       3.627  -5.741 -11.557  0.00  0.00    +0.237 C 
ATOM      7  O   THR A   3       3.391  -6.920 -11.314  0.00  0.00    -0.274 OA
ATOM      8  N   THR A   4       3.910  -4.791 -10.590  0.00  0.00    -0.294 N 
ATOM      9  H   THR A   4       3.556  -3.874 -10.848  0.00  0.00    +0.150 HD
BRANCH   8  10
ATOM     10  CA  THR A   4       3.671  -5.100  -9.170  0.00  0.00    +0.241 C 
BRANCH  10  11
ATOM     11  C   THR A   4       2.892  -4.005  -8.393  0.00  0.00    +0.257 C 
ATOM     12  O   THR A   4       2.577  -4.289  -7.206  0.00  0.00    -0.203 OA
ATOM     13  OXT THR A   4       2.772  -2.917  -9.035  0.00  0.00    -0.203 OA
ENDBRANCH  10  11
BRANCH  10  14
ATOM     14  CB  THR A   4       5.012  -5.169  -8.410  0.00  0.00    +0.149 C 
ATOM     15  CG2 THR A   4       6.115  -5.801  -9.250  0.00  0.00    +0.041 C 
BRANCH  14  16
ATOM     16  OG1 THR A   4       5.511  -3.857  -8.093  0.00  0.00    -0.389 OA
ATOM     17  H   THR A   4       4.704  -3.341  -7.798  0.00  0.00    +0.210 HD
ENDBRANCH  14  16
ENDBRANCH  10  14
ENDBRANCH   8  10
ENDBRANCH   5   6
BRANCH   5  18
ATOM     18  CB  THR A   3       3.279  -6.221 -13.964  0.00  0.00    +0.141 C 
ATOM     19  CG2 THR A   3       1.888  -5.769 -14.386  0.00  0.00    +0.040 C 
BRANCH  18  20
ATOM     20  OG1 THR A   3       4.092  -6.383 -15.141  0.00  0.00    -0.390 OA
ATOM     21  H   THR A   3       4.141  -5.507 -15.570  0.00  0.00    +0.210 HD
ENDBRANCH  18  20
ENDBRANCH   5  18
ENDBRANCH   3   5
BRANCH   1  22
ATOM     22  CA  ASP A   2       7.671  -4.327 -13.551  0.00  0.00    +0.175 C 
BRANCH  22  25
ATOM     23  C   LEU A   1       7.609  -4.411 -15.989  0.00  0.00    +0.199 C 
ATOM     24  O   LEU A   1       6.894  -5.391 -15.938  0.00  0.00    -0.278 OA
ATOM     25  N   ASP A   2       8.065  -3.744 -14.859  0.00  0.00    -0.304 N 
ATOM     26  H   ASP A   2       9.090  -3.724 -14.855  0.00  0.00    +0.149 HD
BRANCH  23  27
ATOM     27  CA  LEU A   1       8.059  -3.786 -17.316  0.00  0.00    +0.013 C 
BRANCH  27  28
ATOM     28  N   LEU A   1       7.294  -4.395 -18.464  0.00  0.00    +0.386 N 
ATOM     29  H   LEU A   1       7.457  -5.412 -18.451  0.00  0.00    -0.089 HD
ATOM     30  H   LEU A   1       7.584  -4.029 -19.374  0.00  0.00    -0.089 HD
ATOM     31  H   LEU A   1       6.287  -4.255 -18.320  0.00  0.00    -0.089 HD
ENDBRANCH  27  28
BRANCH  27  32
ATOM     32  CB  LEU A   1       7.856  -2.272 -17.306  0.00  0.00    -0.004 C 
BRANCH  32  33
ATOM     33  CG  LEU A   1       9.141  -1.434 -17.466  0.00  0.00    -0.018 C 
ATOM     34  CD1 LEU A   1       9.133  -0.295 -16.443  0.00  0.00    +0.007 C 
ATOM     35  CD2 LEU A   1      10.412  -2.269 -17.293  0.00  0.00    +0.007 C 
ENDBRANCH  32  33
ENDBRANCH  27  32
ENDBRANCH  23  27
ENDBRANCH  22  25
BRANCH  22  36
ATOM     36  CB  ASP A   2       8.464  -3.656 -12.441  0.00  0.00    +0.189 C 
BRANCH  36  37
ATOM     37  CG  ASP A   2       9.392  -2.582 -12.994  0.00  0.00    +0.236 C 
ATOM     38  OD1 ASP A   2      10.532  -2.985 -13.375  0.00  0.00    -0.205 OA
ATOM     39  OD2 ASP A   2       8.853  -1.457 -13.163  0.00  0.00    -0.205 OA
ENDBRANCH  36  37
ENDBRANCH  22  36
ENDBRANCH   1  22
TORSDOF 16
ENDMDL
MODEL 8
REMARK minimizedAffinity -6.68844509
REMARK minimizedRMSD -1
REMARK  Name = LDTT_min.pdb
REMARK  20 active torsions:
REMARK  status: ('A' for Active; 'I' for Inactive)
REMARK    1  A    between atoms: N_1  and  CA_2
REMARK    2  A    between atoms: CA_2  and  C_3
REMARK    3  A    between atoms: CA_2  and  CB_5
REMARK    4  A    between atoms: CB_5  and  CG_6
REMARK    5  A    between atoms: CG_6  and  CD1_7
REMARK    6  A    between atoms: CG_6  and  CD2_8
REMARK    7  A    between atoms: N_9  and  CA_10
REMARK    8  A    between atoms: CA_10  and  C_11
REMARK    9  A    between atoms: CA_10  and  CB_13
REMARK   10  A    between atoms: CB_13  and  CG_14
REMARK   11  A    between atoms: N_17  and  CA_18
REMARK   12  A    between atoms: CA_18  and  C_19
REMARK   13  A    between atoms: CA_18  and  CB_21
REMARK   14  A    between atoms: CB_21  and  OG1_22
REMARK   15  A    between atoms: CB_21  and  CG2_23
REMARK   16  A    between atoms: N_24  and  CA_25
REMARK   17  A    between atoms: CA_25  and  C_26
REMARK   18  A    between atoms: CA_25  and  CB_29
REMARK   19  A    between atoms: CB_29  and  OG1_30
REMARK   20  A    between atoms: CB_29  and  CG2_31
REMARK                            x       y       z     vdW  Elec       q    Type
REMARK                         _______ _______ _______ _____ _____    ______ ____
ROOT
ATOM      1  C   ASP A   2       6.993  -4.117 -11.972  0.00  0.00    +0.235 C 
ATOM      2  O   ASP A   2       7.259  -3.991 -10.780  0.00  0.00    -0.274 OA
ATOM      3  N   THR A   3       7.875  -3.714 -12.966  0.00  0.00    -0.300 N 
ATOM      4  H   THR A   3       7.946  -4.365 -13.736  0.00  0.00    +0.150 HD
ENDROOT
BRANCH   3   5
ATOM      5  CA  THR A   3       9.103  -2.995 -12.597  0.00  0.00    +0.187 C 
BRANCH   5   6
ATOM      6  C   THR A   3       9.427  -1.884 -13.612  0.00  0.00    +0.237 C 
ATOM      7  O   THR A   3       9.930  -0.820 -13.265  0.00  0.00    -0.274 OA
ATOM      8  N   THR A   4       9.390  -2.335 -14.921  0.00  0.00    -0.294 N 
ATOM      9  H   THR A   4       8.548  -2.873 -15.110  0.00  0.00    +0.150 HD
BRANCH   8  10
ATOM     10  CA  THR A   4       9.720  -1.414 -16.021  0.00  0.00    +0.241 C 
BRANCH  10  11
ATOM     11  C   THR A   4       8.517  -0.595 -16.560  0.00  0.00    +0.257 C 
ATOM     12  O   THR A   4       8.793   0.535 -17.046  0.00  0.00    -0.203 OA
ATOM     13  OXT THR A   4       7.419  -1.230 -16.534  0.00  0.00    -0.203 OA
ENDBRANCH  10  11
BRANCH  10  14
ATOM     14  CB  THR A   4      10.173  -2.212 -17.261  0.00  0.00    +0.149 C 
ATOM     15  CG2 THR A   4      10.203  -3.712 -16.998  0.00  0.00    +0.041 C 
BRANCH  14  16
ATOM     16  OG1 THR A   4       9.252  -2.059 -18.357  0.00  0.00    -0.389 OA
ATOM     17  H   THR A   4       9.007  -1.088 -18.351  0.00  0.00    +0.210 HD
ENDBRANCH  14  16
ENDBRANCH  10  14
ENDBRANCH   8  10
ENDBRANCH   5   6
BRANCH   5  18
ATOM     18  CB  THR A   3      10.296  -3.982 -12.618  0.00  0.00    +0.141 C 
ATOM     19  CG2 THR A   3      10.655  -4.558 -11.255  0.00  0.00    +0.040 C 
BRANCH  18  20
ATOM     20  OG1 THR A   3      10.007  -5.067 -13.519  0.00  0.00    -0.390 OA
ATOM     21  H   THR A   3       9.242  -5.544 -13.145  0.00  0.00    +0.210 HD
ENDBRANCH  18  20
ENDBRANCH   5  18
ENDBRANCH   3   5
BRANCH   1  22
ATOM     22  CA  ASP A   2       5.764  -4.896 -12.487  0.00  0.00    +0.175 C 
BRANCH  22  25
ATOM     23  C   LEU A   1       3.942  -5.526 -10.990  0.00  0.00    +0.199 C 
ATOM     24  O   LEU A   1       4.418  -6.637 -10.877  0.00  0.00    -0.278 OA
ATOM     25  N   ASP A   2       4.526  -4.524 -11.754  0.00  0.00    -0.304 N 
ATOM     26  H   ASP A   2       3.867  -4.202 -12.471  0.00  0.00    +0.149 HD
BRANCH  23  27
ATOM     27  CA  LEU A   1       2.656  -5.102 -10.270  0.00  0.00    +0.013 C 
BRANCH  27  28
ATOM     28  N   LEU A   1       1.450  -5.644 -10.995  0.00  0.00    +0.386 N 
ATOM     29  H   LEU A   1       1.475  -5.291 -11.962  0.00  0.00    -0.089 HD
ATOM     30  H   LEU A   1       0.566  -5.360 -10.566  0.00  0.00    -0.089 HD
ATOM     31  H   LEU A   1       1.513  -6.667 -11.052  0.00  0.00    -0.089 HD
ENDBRANCH  27  28
BRANCH  27  32
ATOM     32  CB  LEU A   1       2.650  -5.591  -8.822  0.00  0.00    -0.004 C 
BRANCH  32  33
ATOM     33  CG  LEU A   1       2.199  -4.551  -7.777  0.00  0.00    -0.018 C 
ATOM     34  CD1 LEU A   1       2.208  -3.158  -8.412  0.00  0.00    +0.007 C 
ATOM     35  CD2 LEU A   1       0.807  -4.849  -7.214  0.00  0.00    +0.007 C 
ENDBRANCH  32  33
ENDBRANCH  27  32
ENDBRANCH  23  27
ENDBRANCH  22  25
BRANCH  22  36
ATOM     36  CB  ASP A   2       5.583  -4.594 -13.966  0.00  0.00    +0.189 C 
BRANCH  36  37
ATOM     37  CG  ASP A   2       4.787  -5.690 -14.663  0.00  0.00    +0.236 C 
ATOM     38  OD1 ASP A   2       5.475  -6.575 -15.255  0.00  0.00    -0.205 OA
ATOM     39  OD2 ASP A   2       3.551  -5.678 -14.421  0.00  0.00    -0.205 OA
ENDBRANCH  36  37
ENDBRANCH  22  36
ENDBRANCH   1  22
TORSDOF 16
ENDMDL
MODEL 9
REMARK minimizedAffinity -6.65196943
REMARK minimizedRMSD -1
REMARK  Name = LDTT_min.pdb
REMARK  20 active torsions:
REMARK  status: ('A' for Active; 'I' for Inactive)
REMARK    1  A    between atoms: N_1  and  CA_2
REMARK    2  A    between atoms: CA_2  and  C_3
REMARK    3  A    between atoms: CA_2  and  CB_5
REMARK    4  A    between atoms: CB_5  and  CG_6
REMARK    5  A    between atoms: CG_6  and  CD1_7
REMARK    6  A    between atoms: CG_6  and  CD2_8
REMARK    7  A    between atoms: N_9  and  CA_10
REMARK    8  A    between atoms: CA_10  and  C_11
REMARK    9  A    between atoms: CA_10  and  CB_13
REMARK   10  A    between atoms: CB_13  and  CG_14
REMARK   11  A    between atoms: N_17  and  CA_18
REMARK   12  A    between atoms: CA_18  and  C_19
REMARK   13  A    between atoms: CA_18  and  CB_21
REMARK   14  A    between atoms: CB_21  and  OG1_22
REMARK   15  A    between atoms: CB_21  and  CG2_23
REMARK   16  A    between atoms: N_24  and  CA_25
REMARK   17  A    between atoms: CA_25  and  C_26
REMARK   18  A    between atoms: CA_25  and  CB_29
REMARK   19  A    between atoms: CB_29  and  OG1_30
REMARK   20  A    between atoms: CB_29  and  CG2_31
REMARK                            x       y       z     vdW  Elec       q    Type
REMARK                         _______ _______ _______ _____ _____    ______ ____
ROOT
ATOM      1  C   ASP A   2       6.650  -4.175 -11.567  0.00  0.00    +0.235 C 
ATOM      2  O   ASP A   2       7.217  -4.390 -10.500  0.00  0.00    -0.274 OA
ATOM      3  N   THR A   3       7.349  -3.791 -12.704  0.00  0.00    -0.300 N 
ATOM      4  H   THR A   3       7.035  -4.249 -13.549  0.00  0.00    +0.150 HD
ENDROOT
BRANCH   3   5
ATOM      5  CA  THR A   3       8.787  -3.501 -12.608  0.00  0.00    +0.187 C 
BRANCH   5   6
ATOM      6  C   THR A   3       9.170  -2.283 -13.467  0.00  0.00    +0.237 C 
ATOM      7  O   THR A   3       9.591  -1.246 -12.964  0.00  0.00    -0.274 OA
ATOM      8  N   THR A   4       9.288  -2.598 -14.810  0.00  0.00    -0.294 N 
ATOM      9  H   THR A   4       8.492  -3.137 -15.142  0.00  0.00    +0.150 HD
BRANCH   8  10
ATOM     10  CA  THR A   4       9.694  -1.559 -15.771  0.00  0.00    +0.241 C 
BRANCH  10  11
ATOM     11  C   THR A   4       8.519  -0.749 -16.382  0.00  0.00    +0.257 C 
ATOM     12  O   THR A   4       8.820   0.369 -16.880  0.00  0.00    -0.203 OA
ATOM     13  OXT THR A   4       7.419  -1.381 -16.392  0.00  0.00    -0.203 OA
ENDBRANCH  10  11
BRANCH  10  14
ATOM     14  CB  THR A   4      10.342  -2.209 -17.011  0.00  0.00    +0.149 C 
ATOM     15  CG2 THR A   4      10.596  -3.698 -16.810  0.00  0.00    +0.041 C 
BRANCH  14  16
ATOM     16  OG1 THR A   4       9.475  -2.145 -18.158  0.00  0.00    -0.389 OA
ATOM     17  H   THR A   4       9.077  -1.226 -18.127  0.00  0.00    +0.210 HD
ENDBRANCH  14  16
ENDBRANCH  10  14
ENDBRANCH   8  10
ENDBRANCH   5   6
BRANCH   5  18
ATOM     18  CB  THR A   3       9.587  -4.707 -13.159  0.00  0.00    +0.141 C 
ATOM     19  CG2 THR A   3      10.111  -5.652 -12.086  0.00  0.00    +0.040 C 
BRANCH  18  20
ATOM     20  OG1 THR A   3       8.762  -5.454 -14.073  0.00  0.00    -0.390 OA
ATOM     21  H   THR A   3       8.019  -5.812 -13.550  0.00  0.00    +0.210 HD
ENDBRANCH  18  20
ENDBRANCH   5  18
ENDBRANCH   3   5
BRANCH   1  22
ATOM     22  CA  ASP A   2       5.158  -4.489 -11.810  0.00  0.00    +0.175 C 
BRANCH  22  25
ATOM     23  C   LEU A   1       4.856  -5.930 -13.756  0.00  0.00    +0.199 C 
ATOM     24  O   LEU A   1       4.956  -4.966 -14.487  0.00  0.00    -0.278 OA
ATOM     25  N   ASP A   2       4.963  -5.849 -12.373  0.00  0.00    -0.304 N 
ATOM     26  H   ASP A   2       4.108  -6.209 -11.936  0.00  0.00    +0.149 HD
BRANCH  23  27
ATOM     27  CA  LEU A   1       4.634  -7.351 -14.290  0.00  0.00    +0.013 C 
BRANCH  27  28
ATOM     28  N   LEU A   1       5.653  -8.294 -13.702  0.00  0.00    +0.386 N 
ATOM     29  H   LEU A   1       6.590  -7.942 -13.945  0.00  0.00    -0.089 HD
ATOM     30  H   LEU A   1       5.562  -9.250 -14.055  0.00  0.00    -0.089 HD
ATOM     31  H   LEU A   1       5.587  -8.277 -12.678  0.00  0.00    -0.089 HD
ENDBRANCH  27  28
BRANCH  27  32
ATOM     32  CB  LEU A   1       3.225  -7.845 -13.965  0.00  0.00    -0.004 C 
BRANCH  32  33
ATOM     33  CG  LEU A   1       2.079  -6.951 -14.478  0.00  0.00    -0.018 C 
ATOM     34  CD1 LEU A   1       1.583  -7.486 -15.824  0.00  0.00    +0.007 C 
ATOM     35  CD2 LEU A   1       0.908  -6.874 -13.495  0.00  0.00    +0.007 C 
ENDBRANCH  32  33
ENDBRANCH  27  32
ENDBRANCH  23  27
ENDBRANCH  22  25
BRANCH  22  36
ATOM     36  CB  ASP A   2       4.418  -4.381 -10.486  0.00  0.00    +0.189 C 
BRANCH  36  37
ATOM     37  CG  ASP A   2       3.003  -3.852 -10.683  0.00  0.00    +0.236 C 
ATOM     38  OD1 ASP A   2       2.343  -4.389 -11.624  0.00  0.00    -0.205 OA
ATOM     39  OD2 ASP A   2       2.602  -3.070  -9.781  0.00  0.00    -0.205 OA
ENDBRANCH  36  37
ENDBRANCH  22  36
ENDBRANCH   1  22
TORSDOF 16
ENDMDL
MODEL 10
REMARK minimizedAffinity -6.64717722
REMARK minimizedRMSD -1
REMARK  Name = LDTT_min.pdb
REMARK  20 active torsions:
REMARK  status: ('A' for Active; 'I' for Inactive)
REMARK    1  A    between atoms: N_1  and  CA_2
REMARK    2  A    between atoms: CA_2  and  C_3
REMARK    3  A    between atoms: CA_2  and  CB_5
REMARK    4  A    between atoms: CB_5  and  CG_6
REMARK    5  A    between atoms: CG_6  and  CD1_7
REMARK    6  A    between atoms: CG_6  and  CD2_8
REMARK    7  A    between atoms: N_9  and  CA_10
REMARK    8  A    between atoms: CA_10  and  C_11
REMARK    9  A    between atoms: CA_10  and  CB_13
REMARK   10  A    between atoms: CB_13  and  CG_14
REMARK   11  A    between atoms: N_17  and  CA_18
REMARK   12  A    between atoms: CA_18  and  C_19
REMARK   13  A    between atoms: CA_18  and  CB_21
REMARK   14  A    between atoms: CB_21  and  OG1_22
REMARK   15  A    between atoms: CB_21  and  CG2_23
REMARK   16  A    between atoms: N_24  and  CA_25
REMARK   17  A    between atoms: CA_25  and  C_26
REMARK   18  A    between atoms: CA_25  and  CB_29
REMARK   19  A    between atoms: CB_29  and  OG1_30
REMARK   20  A    between atoms: CB_29  and  CG2_31
REMARK                            x       y       z     vdW  Elec       q    Type
REMARK                         _______ _______ _______ _____ _____    ______ ____
ROOT
ATOM      1  C   ASP A   2       6.089  -4.183 -13.058  0.00  0.00    +0.235 C 
ATOM      2  O   ASP A   2       5.648  -3.038 -13.024  0.00  0.00    -0.274 OA
ATOM      3  N   THR A   3       5.260  -5.292 -12.957  0.00  0.00    -0.300 N 
ATOM      4  H   THR A   3       5.498  -6.039 -13.596  0.00  0.00    +0.150 HD
ENDROOT
BRANCH   3   5
ATOM      5  CA  THR A   3       3.831  -5.104 -12.667  0.00  0.00    +0.187 C 
BRANCH   5   6
ATOM      6  C   THR A   3       3.495  -5.508 -11.221  0.00  0.00    +0.237 C 
ATOM      7  O   THR A   3       3.663  -6.654 -10.816  0.00  0.00    -0.274 OA
ATOM      8  N   THR A   4       3.309  -4.413 -10.395  0.00  0.00    -0.294 N 
ATOM      9  H   THR A   4       2.688  -3.726 -10.815  0.00  0.00    +0.150 HD
BRANCH   8  10
ATOM     10  CA  THR A   4       3.026  -4.616  -8.964  0.00  0.00    +0.241 C 
BRANCH  10  11
ATOM     11  C   THR A   4       2.209  -3.476  -8.299  0.00  0.00    +0.257 C 
ATOM     12  O   THR A   4       1.341  -3.836  -7.459  0.00  0.00    -0.203 OA
ATOM     13  OXT THR A   4       2.608  -2.314  -8.618  0.00  0.00    -0.203 OA
ENDBRANCH  10  11
BRANCH  10  14
ATOM     14  CB  THR A   4       4.341  -4.610  -8.158  0.00  0.00    +0.149 C 
ATOM     15  CG2 THR A   4       4.580  -5.934  -7.442  0.00  0.00    +0.041 C 
BRANCH  14  16
ATOM     16  OG1 THR A   4       5.488  -4.453  -9.012  0.00  0.00    -0.389 OA
ATOM     17  H   THR A   4       5.215  -3.758  -9.681  0.00  0.00    +0.210 HD
ENDBRANCH  14  16
ENDBRANCH  10  14
ENDBRANCH   8  10
ENDBRANCH   5   6
BRANCH   5  18
ATOM     18  CB  THR A   3       2.999  -6.024 -13.594  0.00  0.00    +0.141 C 
ATOM     19  CG2 THR A   3       1.512  -5.697 -13.629  0.00  0.00    +0.040 C 
BRANCH  18  20
ATOM     20  OG1 THR A   3       3.521  -5.956 -14.934  0.00  0.00    -0.390 OA
ATOM     21  H   THR A   3       3.388  -5.039 -15.240  0.00  0.00    +0.210 HD
ENDBRANCH  18  20
ENDBRANCH   5  18
ENDBRANCH   3   5
BRANCH   1  22
ATOM     22  CA  ASP A   2       7.558  -4.514 -13.404  0.00  0.00    +0.175 C 
BRANCH  22  25
ATOM     23  C   LEU A   1       8.798  -2.864 -14.705  0.00  0.00    +0.199 C 
ATOM     24  O   LEU A   1       8.450  -3.408 -15.731  0.00  0.00    -0.278 OA
ATOM     25  N   ASP A   2       8.405  -3.295 -13.444  0.00  0.00    -0.304 N 
ATOM     26  H   ASP A   2       9.230  -3.513 -12.876  0.00  0.00    +0.149 HD
BRANCH  23  27
ATOM     27  CA  LEU A   1       9.689  -1.615 -14.695  0.00  0.00    +0.013 C 
BRANCH  27  28
ATOM     28  N   LEU A   1      10.898  -1.844 -13.822  0.00  0.00    +0.386 N 
ATOM     29  H   LEU A   1      10.567  -2.079 -12.876  0.00  0.00    -0.089 HD
ATOM     30  H   LEU A   1      11.507  -1.024 -13.762  0.00  0.00    -0.089 HD
ATOM     31  H   LEU A   1      11.420  -2.659 -14.165  0.00  0.00    -0.089 HD
ENDBRANCH  27  28
BRANCH  27  32
ATOM     32  CB  LEU A   1      10.135  -1.247 -16.109  0.00  0.00    -0.004 C 
BRANCH  32  33
ATOM     33  CG  LEU A   1       9.588   0.091 -16.645  0.00  0.00    -0.018 C 
ATOM     34  CD1 LEU A   1       8.331  -0.173 -17.477  0.00  0.00    +0.007 C 
ATOM     35  CD2 LEU A   1       9.264   1.085 -15.527  0.00  0.00    +0.007 C 
ENDBRANCH  32  33
ENDBRANCH  27  32
ENDBRANCH  23  27
ENDBRANCH  22  25
BRANCH  22  36
ATOM     36  CB  ASP A   2       8.100  -5.470 -12.354  0.00  0.00    +0.189 C 
BRANCH  36  37
ATOM     37  CG  ASP A   2       8.918  -4.733 -11.302  0.00  0.00    +0.236 C 
ATOM     38  OD1 ASP A   2       8.261  -4.269 -10.322  0.00  0.00    -0.205 OA
ATOM     39  OD2 ASP A   2      10.166  -4.822 -11.448  0.00  0.00    -0.205 OA
ENDBRANCH  36  37
ENDBRANCH  22  36
ENDBRANCH   1  22
TORSDOF 16
ENDMDL
MODEL 11
REMARK minimizedAffinity -6.59795666
REMARK minimizedRMSD -1
REMARK  Name = LDTT_min.pdb
REMARK  20 active torsions:
REMARK  status: ('A' for Active; 'I' for Inactive)
REMARK    1  A    between atoms: N_1  and  CA_2
REMARK    2  A    between atoms: CA_2  and  C_3
REMARK    3  A    between atoms: CA_2  and  CB_5
REMARK    4  A    between atoms: CB_5  and  CG_6
REMARK    5  A    between atoms: CG_6  and  CD1_7
REMARK    6  A    between atoms: CG_6  and  CD2_8
REMARK    7  A    between atoms: N_9  and  CA_10
REMARK    8  A    between atoms: CA_10  and  C_11
REMARK    9  A    between atoms: CA_10  and  CB_13
REMARK   10  A    between atoms: CB_13  and  CG_14
REMARK   11  A    between atoms: N_17  and  CA_18
REMARK   12  A    between atoms: CA_18  and  C_19
REMARK   13  A    between atoms: CA_18  and  CB_21
REMARK   14  A    between atoms: CB_21  and  OG1_22
REMARK   15  A    between atoms: CB_21  and  CG2_23
REMARK   16  A    between atoms: N_24  and  CA_25
REMARK   17  A    between atoms: CA_25  and  C_26
REMARK   18  A    between atoms: CA_25  and  CB_29
REMARK   19  A    between atoms: CB_29  and  OG1_30
REMARK   20  A    between atoms: CB_29  and  CG2_31
REMARK                            x       y       z     vdW  Elec       q    Type
REMARK                         _______ _______ _______ _____ _____    ______ ____
ROOT
ATOM      1  C   ASP A   2       7.176  -3.494 -16.183  0.00  0.00    +0.235 C 
ATOM      2  O   ASP A   2       6.874  -3.661 -17.361  0.00  0.00    -0.274 OA
ATOM      3  N   THR A   3       6.750  -4.363 -15.187  0.00  0.00    -0.300 N 
ATOM      4  H   THR A   3       7.465  -4.583 -14.506  0.00  0.00    +0.150 HD
ENDROOT
BRANCH   3   5
ATOM      5  CA  THR A   3       5.805  -5.438 -15.519  0.00  0.00    +0.187 C 
BRANCH   5   6
ATOM      6  C   THR A   3       4.602  -5.441 -14.558  0.00  0.00    +0.237 C 
ATOM      7  O   THR A   3       3.512  -5.894 -14.892  0.00  0.00    -0.274 OA
ATOM      8  N   THR A   4       4.971  -5.190 -13.248  0.00  0.00    -0.294 N 
ATOM      9  H   THR A   4       5.588  -4.385 -13.178  0.00  0.00    +0.150 HD
BRANCH   8  10
ATOM     10  CA  THR A   4       3.950  -5.201 -12.187  0.00  0.00    +0.241 C 
BRANCH  10  11
ATOM     11  C   THR A   4       4.106  -4.077 -11.128  0.00  0.00    +0.257 C 
ATOM     12  O   THR A   4       3.212  -3.189 -11.130  0.00  0.00    -0.203 OA
ATOM     13  OXT THR A   4       5.069  -4.268 -10.324  0.00  0.00    -0.203 OA
ENDBRANCH  10  11
BRANCH  10  14
ATOM     14  CB  THR A   4       4.078  -6.486 -11.342  0.00  0.00    +0.149 C 
ATOM     15  CG2 THR A   4       3.082  -7.556 -11.773  0.00  0.00    +0.041 C 
BRANCH  14  16
ATOM     16  OG1 THR A   4       5.366  -7.106 -11.510  0.00  0.00    -0.389 OA
ATOM     17  H   THR A   4       6.018  -6.346 -11.509  0.00  0.00    +0.210 HD
ENDBRANCH  14  16
ENDBRANCH  10  14
ENDBRANCH   8  10
ENDBRANCH   5   6
BRANCH   5  18
ATOM     18  CB  THR A   3       6.512  -6.806 -15.355  0.00  0.00    +0.141 C 
ATOM     19  CG2 THR A   3       7.944  -6.713 -14.844  0.00  0.00    +0.040 C 
BRANCH  18  20
ATOM     20  OG1 THR A   3       5.752  -7.636 -14.457  0.00  0.00    -0.390 OA
ATOM     21  H   THR A   3       5.768  -7.195 -13.587  0.00  0.00    +0.210 HD
ENDBRANCH  18  20
ENDBRANCH   5  18
ENDBRANCH   3   5
BRANCH   1  22
ATOM     22  CA  ASP A   2       8.198  -2.436 -15.713  0.00  0.00    +0.175 C 
BRANCH  22  25
ATOM     23  C   LEU A   1       9.547  -2.289 -13.685  0.00  0.00    +0.199 C 
ATOM     24  O   LEU A   1       8.996  -1.248 -13.393  0.00  0.00    -0.278 OA
ATOM     25  N   ASP A   2       9.231  -3.022 -14.821  0.00  0.00    -0.304 N 
ATOM     26  H   ASP A   2      10.066  -3.139 -15.405  0.00  0.00    +0.149 HD
BRANCH  23  27
ATOM     27  CA  LEU A   1      10.634  -2.922 -12.807  0.00  0.00    +0.013 C 
BRANCH  27  28
ATOM     28  N   LEU A   1      10.560  -2.368 -11.406  0.00  0.00    +0.386 N 
ATOM     29  H   LEU A   1      10.667  -1.346 -11.462  0.00  0.00    -0.089 HD
ATOM     30  H   LEU A   1      11.287  -2.741 -10.791  0.00  0.00    -0.089 HD
ATOM     31  H   LEU A   1       9.627  -2.547 -11.014  0.00  0.00    -0.089 HD
ENDBRANCH  27  28
BRANCH  27  32
ATOM     32  CB  LEU A   1      10.493  -4.443 -12.769  0.00  0.00    -0.004 C 
BRANCH  32  33
ATOM     33  CG  LEU A   1       9.850  -5.014 -11.490  0.00  0.00    -0.018 C 
ATOM     34  CD1 LEU A   1       8.326  -4.978 -11.630  0.00  0.00    +0.007 C 
ATOM     35  CD2 LEU A   1      10.304  -6.445 -11.191  0.00  0.00    +0.007 C 
ENDBRANCH  32  33
ENDBRANCH  27  32
ENDBRANCH  23  27
ENDBRANCH  22  25
BRANCH  22  36
ATOM     36  CB  ASP A   2       8.871  -1.835 -16.937  0.00  0.00    +0.189 C 
BRANCH  36  37
ATOM     37  CG  ASP A   2       8.400  -0.408 -17.184  0.00  0.00    +0.236 C 
ATOM     38  OD1 ASP A   2       7.387  -0.288 -17.938  0.00  0.00    -0.205 OA
ATOM     39  OD2 ASP A   2       8.966   0.464 -16.475  0.00  0.00    -0.205 OA
ENDBRANCH  36  37
ENDBRANCH  22  36
ENDBRANCH   1  22
TORSDOF 16
ENDMDL
MODEL 12
REMARK minimizedAffinity -6.5972023
REMARK minimizedRMSD -1
REMARK  Name = LDTT_min.pdb
REMARK  20 active torsions:
REMARK  status: ('A' for Active; 'I' for Inactive)
REMARK    1  A    between atoms: N_1  and  CA_2
REMARK    2  A    between atoms: CA_2  and  C_3
REMARK    3  A    between atoms: CA_2  and  CB_5
REMARK    4  A    between atoms: CB_5  and  CG_6
REMARK    5  A    between atoms: CG_6  and  CD1_7
REMARK    6  A    between atoms: CG_6  and  CD2_8
REMARK    7  A    between atoms: N_9  and  CA_10
REMARK    8  A    between atoms: CA_10  and  C_11
REMARK    9  A    between atoms: CA_10  and  CB_13
REMARK   10  A    between atoms: CB_13  and  CG_14
REMARK   11  A    between atoms: N_17  and  CA_18
REMARK   12  A    between atoms: CA_18  and  C_19
REMARK   13  A    between atoms: CA_18  and  CB_21
REMARK   14  A    between atoms: CB_21  and  OG1_22
REMARK   15  A    between atoms: CB_21  and  CG2_23
REMARK   16  A    between atoms: N_24  and  CA_25
REMARK   17  A    between atoms: CA_25  and  C_26
REMARK   18  A    between atoms: CA_25  and  CB_29
REMARK   19  A    between atoms: CB_29  and  OG1_30
REMARK   20  A    between atoms: CB_29  and  CG2_31
REMARK                            x       y       z     vdW  Elec       q    Type
REMARK                         _______ _______ _______ _____ _____    ______ ____
ROOT
ATOM      1  C   ASP A   2       7.268  -4.556 -11.990  0.00  0.00    +0.235 C 
ATOM      2  O   ASP A   2       7.269  -4.221 -10.810  0.00  0.00    -0.274 OA
ATOM      3  N   THR A   3       8.185  -4.045 -12.898  0.00  0.00    -0.300 N 
ATOM      4  H   THR A   3       8.559  -4.738 -13.534  0.00  0.00    +0.150 HD
ENDROOT
BRANCH   3   5
ATOM      5  CA  THR A   3       9.102  -2.975 -12.479  0.00  0.00    +0.187 C 
BRANCH   5   6
ATOM      6  C   THR A   3       9.246  -1.902 -13.573  0.00  0.00    +0.237 C 
ATOM      7  O   THR A   3       9.416  -0.719 -13.297  0.00  0.00    -0.274 OA
ATOM      8  N   THR A   4       9.478  -2.449 -14.824  0.00  0.00    -0.294 N 
ATOM      9  H   THR A   4       8.829  -3.205 -15.031  0.00  0.00    +0.150 HD
BRANCH   8  10
ATOM     10  CA  THR A   4       9.688  -1.564 -15.981  0.00  0.00    +0.241 C 
BRANCH  10  11
ATOM     11  C   THR A   4       8.404  -0.859 -16.495  0.00  0.00    +0.257 C 
ATOM     12  O   THR A   4       8.580   0.221 -17.122  0.00  0.00    -0.203 OA
ATOM     13  OXT THR A   4       7.345  -1.531 -16.304  0.00  0.00    -0.203 OA
ENDBRANCH  10  11
BRANCH  10  14
ATOM     14  CB  THR A   4      10.137  -2.388 -17.205  0.00  0.00    +0.149 C 
ATOM     15  CG2 THR A   4      10.241  -3.875 -16.886  0.00  0.00    +0.041 C 
BRANCH  14  16
ATOM     16  OG1 THR A   4       9.177  -2.318 -18.275  0.00  0.00    -0.389 OA
ATOM     17  H   THR A   4       8.890  -1.359 -18.297  0.00  0.00    +0.210 HD
ENDBRANCH  14  16
ENDBRANCH  10  14
ENDBRANCH   8  10
ENDBRANCH   5   6
BRANCH   5  18
ATOM     18  CB  THR A   3      10.511  -3.573 -12.249  0.00  0.00    +0.141 C 
ATOM     19  CG2 THR A   3      10.814  -3.921 -10.798  0.00  0.00    +0.040 C 
BRANCH  18  20
ATOM     20  OG1 THR A   3      10.668  -4.758 -13.053  0.00  0.00    -0.390 OA
ATOM     21  H   THR A   3      10.019  -5.408 -12.722  0.00  0.00    +0.210 HD
ENDBRANCH  18  20
ENDBRANCH   5  18
ENDBRANCH   3   5
BRANCH   1  22
ATOM     22  CA  ASP A   2       6.392  -5.702 -12.543  0.00  0.00    +0.175 C 
BRANCH  22  25
ATOM     23  C   LEU A   1       4.121  -5.864 -11.665  0.00  0.00    +0.199 C 
ATOM     24  O   LEU A   1       4.516  -6.588 -10.775  0.00  0.00    -0.278 OA
ATOM     25  N   ASP A   2       4.961  -5.314 -12.625  0.00  0.00    -0.304 N 
ATOM     26  H   ASP A   2       4.652  -5.595 -13.562  0.00  0.00    +0.149 HD
BRANCH  23  27
ATOM     27  CA  LEU A   1       2.650  -5.453 -11.803  0.00  0.00    +0.013 C 
BRANCH  27  28
ATOM     28  N   LEU A   1       2.398  -4.163 -11.064  0.00  0.00    +0.386 N 
ATOM     29  H   LEU A   1       2.660  -4.304 -10.078  0.00  0.00    -0.089 HD
ATOM     30  H   LEU A   1       1.420  -3.865 -11.103  0.00  0.00    -0.089 HD
ATOM     31  H   LEU A   1       3.015  -3.429 -11.432  0.00  0.00    -0.089 HD
ENDBRANCH  27  28
BRANCH  27  32
ATOM     32  CB  LEU A   1       2.260  -5.292 -13.271  0.00  0.00    -0.004 C 
BRANCH  32  33
ATOM     33  CG  LEU A   1       1.217  -6.301 -13.790  0.00  0.00    -0.018 C 
ATOM     34  CD1 LEU A   1       1.725  -6.933 -15.089  0.00  0.00    +0.007 C 
ATOM     35  CD2 LEU A   1       0.906  -7.402 -12.773  0.00  0.00    +0.007 C 
ENDBRANCH  32  33
ENDBRANCH  27  32
ENDBRANCH  23  27
ENDBRANCH  22  25
BRANCH  22  36
ATOM     36  CB  ASP A   2       6.895  -6.070 -13.930  0.00  0.00    +0.189 C 
BRANCH  36  37
ATOM     37  CG  ASP A   2       5.933  -5.598 -15.012  0.00  0.00    +0.236 C 
ATOM     38  OD1 ASP A   2       6.096  -4.405 -15.408  0.00  0.00    -0.205 OA
ATOM     39  OD2 ASP A   2       5.206  -6.503 -15.502  0.00  0.00    -0.205 OA
ENDBRANCH  36  37
ENDBRANCH  22  36
ENDBRANCH   1  22
TORSDOF 16
ENDMDL
MODEL 13
REMARK minimizedAffinity -6.5651145
REMARK minimizedRMSD -1
REMARK  Name = LDTT_min.pdb
REMARK  20 active torsions:
REMARK  status: ('A' for Active; 'I' for Inactive)
REMARK    1  A    between atoms: N_1  and  CA_2
REMARK    2  A    between atoms: CA_2  and  C_3
REMARK    3  A    between atoms: CA_2  and  CB_5
REMARK    4  A    between atoms: CB_5  and  CG_6
REMARK    5  A    between atoms: CG_6  and  CD1_7
REMARK    6  A    between atoms: CG_6  and  CD2_8
REMARK    7  A    between atoms: N_9  and  CA_10
REMARK    8  A    between atoms: CA_10  and  C_11
REMARK    9  A    between atoms: CA_10  and  CB_13
REMARK   10  A    between atoms: CB_13  and  CG_14
REMARK   11  A    between atoms: N_17  and  CA_18
REMARK   12  A    between atoms: CA_18  and  C_19
REMARK   13  A    between atoms: CA_18  and  CB_21
REMARK   14  A    between atoms: CB_21  and  OG1_22
REMARK   15  A    between atoms: CB_21  and  CG2_23
REMARK   16  A    between atoms: N_24  and  CA_25
REMARK   17  A    between atoms: CA_25  and  C_26
REMARK   18  A    between atoms: CA_25  and  CB_29
REMARK   19  A    between atoms: CB_29  and  OG1_30
REMARK   20  A    between atoms: CB_29  and  CG2_31
REMARK                            x       y       z     vdW  Elec       q    Type
REMARK                         _______ _______ _______ _____ _____    ______ ____
ROOT
ATOM      1  C   ASP A   2       7.274  -5.059 -12.113  0.00  0.00    +0.235 C 
ATOM      2  O   ASP A   2       8.058  -5.961 -11.831  0.00  0.00    -0.274 OA
ATOM      3  N   THR A   3       7.038  -4.678 -13.427  0.00  0.00    -0.300 N 
ATOM      4  H   THR A   3       6.064  -4.499 -13.631  0.00  0.00    +0.150 HD
ENDROOT
BRANCH   3   5
ATOM      5  CA  THR A   3       7.838  -5.270 -14.509  0.00  0.00    +0.187 C 
BRANCH   5   6
ATOM      6  C   THR A   3       8.850  -4.257 -15.075  0.00  0.00    +0.237 C 
ATOM      7  O   THR A   3       9.763  -4.604 -15.817  0.00  0.00    -0.274 OA
ATOM      8  N   THR A   4       8.431  -2.947 -14.920  0.00  0.00    -0.294 N 
ATOM      9  H   THR A   4       8.108  -2.764 -13.973  0.00  0.00    +0.150 HD
BRANCH   8  10
ATOM     10  CA  THR A   4       9.257  -1.848 -15.446  0.00  0.00    +0.241 C 
BRANCH  10  11
ATOM     11  C   THR A   4       9.476  -0.673 -14.456  0.00  0.00    +0.257 C 
ATOM     12  O   THR A   4       9.120   0.466 -14.864  0.00  0.00    -0.203 OA
ATOM     13  OXT THR A   4       9.890  -1.042 -13.315  0.00  0.00    -0.203 OA
ENDBRANCH  10  11
BRANCH  10  14
ATOM     14  CB  THR A   4       8.541  -1.167 -16.631  0.00  0.00    +0.149 C 
ATOM     15  CG2 THR A   4       8.929  -1.789 -17.967  0.00  0.00    +0.041 C 
BRANCH  14  16
ATOM     16  OG1 THR A   4       7.114  -1.337 -16.558  0.00  0.00    -0.389 OA
ATOM     17  H   THR A   4       6.890  -1.202 -15.591  0.00  0.00    +0.210 HD
ENDBRANCH  14  16
ENDBRANCH  10  14
ENDBRANCH   8  10
ENDBRANCH   5   6
BRANCH   5  18
ATOM     18  CB  THR A   3       6.901  -5.666 -15.676  0.00  0.00    +0.141 C 
ATOM     19  CG2 THR A   3       5.503  -6.084 -15.241  0.00  0.00    +0.040 C 
BRANCH  18  20
ATOM     20  OG1 THR A   3       6.791  -4.567 -16.600  0.00  0.00    -0.390 OA
ATOM     21  H   THR A   3       6.359  -3.838 -16.116  0.00  0.00    +0.210 HD
ENDBRANCH  18  20
ENDBRANCH   5  18
ENDBRANCH   3   5
BRANCH   1  22
ATOM     22  CA  ASP A   2       6.341  -4.395 -11.078  0.00  0.00    +0.175 C 
BRANCH  22  25
ATOM     23  C   LEU A   1       3.984  -4.694 -11.632  0.00  0.00    +0.199 C 
ATOM     24  O   LEU A   1       4.044  -3.756 -12.400  0.00  0.00    -0.278 OA
ATOM     25  N   ASP A   2       5.076  -5.153 -10.907  0.00  0.00    -0.304 N 
ATOM     26  H   ASP A   2       4.867  -5.120  -9.903  0.00  0.00    +0.149 HD
BRANCH  23  27
ATOM     27  CA  LEU A   1       2.694  -5.494 -11.407  0.00  0.00    +0.013 C 
BRANCH  27  28
ATOM     28  N   LEU A   1       2.062  -5.105 -10.095  0.00  0.00    +0.386 N 
ATOM     29  H   LEU A   1       2.749  -5.277  -9.347  0.00  0.00    -0.089 HD
ATOM     30  H   LEU A   1       1.213  -5.637  -9.888  0.00  0.00    -0.089 HD
ATOM     31  H   LEU A   1       1.868  -4.096 -10.092  0.00  0.00    -0.089 HD
ENDBRANCH  27  28
BRANCH  27  32
ATOM     32  CB  LEU A   1       1.702  -5.268 -12.546  0.00  0.00    -0.004 C 
BRANCH  32  33
ATOM     33  CG  LEU A   1       1.527  -6.456 -13.514  0.00  0.00    -0.018 C 
ATOM     34  CD1 LEU A   1       1.936  -6.024 -14.924  0.00  0.00    +0.007 C 
ATOM     35  CD2 LEU A   1       2.345  -7.680 -13.095  0.00  0.00    +0.007 C 
ENDBRANCH  32  33
ENDBRANCH  27  32
ENDBRANCH  23  27
ENDBRANCH  22  25
BRANCH  22  36
ATOM     36  CB  ASP A   2       7.069  -4.322  -9.745  0.00  0.00    +0.189 C 
BRANCH  36  37
ATOM     37  CG  ASP A   2       6.196  -4.836  -8.608  0.00  0.00    +0.236 C 
ATOM     38  OD1 ASP A   2       6.569  -5.927  -8.080  0.00  0.00    -0.205 OA
ATOM     39  OD2 ASP A   2       5.311  -4.030  -8.218  0.00  0.00    -0.205 OA
ENDBRANCH  36  37
ENDBRANCH  22  36
ENDBRANCH   1  22
TORSDOF 16
ENDMDL
MODEL 14
REMARK minimizedAffinity -6.56365108
REMARK minimizedRMSD -1
REMARK  Name = LDTT_min.pdb
REMARK  20 active torsions:
REMARK  status: ('A' for Active; 'I' for Inactive)
REMARK    1  A    between atoms: N_1  and  CA_2
REMARK    2  A    between atoms: CA_2  and  C_3
REMARK    3  A    between atoms: CA_2  and  CB_5
REMARK    4  A    between atoms: CB_5  and  CG_6
REMARK    5  A    between atoms: CG_6  and  CD1_7
REMARK    6  A    between atoms: CG_6  and  CD2_8
REMARK    7  A    between atoms: N_9  and  CA_10
REMARK    8  A    between atoms: CA_10  and  C_11
REMARK    9  A    between atoms: CA_10  and  CB_13
REMARK   10  A    between atoms: CB_13  and  CG_14
REMARK   11  A    between atoms: N_17  and  CA_18
REMARK   12  A    between atoms: CA_18  and  C_19
REMARK   13  A    between atoms: CA_18  and  CB_21
REMARK   14  A    between atoms: CB_21  and  OG1_22
REMARK   15  A    between atoms: CB_21  and  CG2_23
REMARK   16  A    between atoms: N_24  and  CA_25
REMARK   17  A    between atoms: CA_25  and  C_26
REMARK   18  A    between atoms: CA_25  and  CB_29
REMARK   19  A    between atoms: CB_29  and  OG1_30
REMARK   20  A    between atoms: CB_29  and  CG2_31
REMARK                            x       y       z     vdW  Elec       q    Type
REMARK                         _______ _______ _______ _____ _____    ______ ____
ROOT
ATOM      1  C   ASP A   2       2.676  -4.330  -9.643  0.00  0.00    +0.235 C 
ATOM      2  O   ASP A   2       2.594  -3.192 -10.096  0.00  0.00    -0.274 OA
ATOM      3  N   THR A   3       3.284  -5.359 -10.350  0.00  0.00    -0.300 N 
ATOM      4  H   THR A   3       3.872  -5.952  -9.780  0.00  0.00    +0.150 HD
ENDROOT
BRANCH   3   5
ATOM      5  CA  THR A   3       3.725  -5.127 -11.732  0.00  0.00    +0.187 C 
BRANCH   5   6
ATOM      6  C   THR A   3       3.669  -6.422 -12.562  0.00  0.00    +0.237 C 
ATOM      7  O   THR A   3       4.635  -7.173 -12.651  0.00  0.00    -0.274 OA
ATOM      8  N   THR A   4       2.375  -6.778 -12.900  0.00  0.00    -0.294 N 
ATOM      9  H   THR A   4       1.853  -5.991 -13.277  0.00  0.00    +0.150 HD
BRANCH   8  10
ATOM     10  CA  THR A   4       2.132  -8.019 -13.655  0.00  0.00    +0.241 C 
BRANCH  10  11
ATOM     11  C   THR A   4       1.748  -7.803 -15.144  0.00  0.00    +0.257 C 
ATOM     12  O   THR A   4       1.659  -8.846 -15.847  0.00  0.00    -0.203 OA
ATOM     13  OXT THR A   4       1.466  -6.599 -15.426  0.00  0.00    -0.203 OA
ENDBRANCH  10  11
BRANCH  10  14
ATOM     14  CB  THR A   4       0.899  -8.753 -13.088  0.00  0.00    +0.149 C 
ATOM     15  CG2 THR A   4       0.700  -8.472 -11.603  0.00  0.00    +0.041 C 
BRANCH  14  16
ATOM     16  OG1 THR A   4      -0.319  -8.299 -13.704  0.00  0.00    -0.389 OA
ATOM     17  H   THR A   4      -0.096  -8.210 -14.677  0.00  0.00    +0.210 HD
ENDBRANCH  14  16
ENDBRANCH  10  14
ENDBRANCH   8  10
ENDBRANCH   5   6
BRANCH   5  18
ATOM     18  CB  THR A   3       5.203  -4.664 -11.724  0.00  0.00    +0.141 C 
ATOM     19  CG2 THR A   3       5.526  -3.586 -12.750  0.00  0.00    +0.040 C 
BRANCH  18  20
ATOM     20  OG1 THR A   3       5.546  -4.176 -10.414  0.00  0.00    -0.390 OA
ATOM     21  H   THR A   3       4.994  -3.387 -10.255  0.00  0.00    +0.210 HD
ENDBRANCH  18  20
ENDBRANCH   5  18
ENDBRANCH   3   5
BRANCH   1  22
ATOM     22  CA  ASP A   2       2.297  -4.690  -8.190  0.00  0.00    +0.175 C 
BRANCH  22  25
ATOM     23  C   LEU A   1       0.357  -3.743  -7.053  0.00  0.00    +0.199 C 
ATOM     24  O   LEU A   1       1.079  -2.964  -6.466  0.00  0.00    -0.278 OA
ATOM     25  N   ASP A   2       0.827  -4.665  -7.980  0.00  0.00    -0.304 N 
ATOM     26  H   ASP A   2       0.573  -5.615  -7.688  0.00  0.00    +0.149 HD
BRANCH  23  27
ATOM     27  CA  LEU A   1      -1.164  -3.768  -6.853  0.00  0.00    +0.013 C 
BRANCH  27  28
ATOM     28  N   LEU A   1      -1.530  -4.739  -5.758  0.00  0.00    +0.386 N 
ATOM     29  H   LEU A   1      -1.168  -5.666  -6.021  0.00  0.00    -0.089 HD
ATOM     30  H   LEU A   1      -2.540  -4.811  -5.611  0.00  0.00    -0.089 HD
ATOM     31  H   LEU A   1      -1.055  -4.472  -4.888  0.00  0.00    -0.089 HD
ENDBRANCH  27  28
BRANCH  27  32
ATOM     32  CB  LEU A   1      -1.696  -2.378  -6.509  0.00  0.00    -0.004 C 
BRANCH  32  33
ATOM     33  CG  LEU A   1      -3.025  -1.994  -7.190  0.00  0.00    -0.018 C 
ATOM     34  CD1 LEU A   1      -3.086  -2.633  -8.579  0.00  0.00    +0.007 C 
ATOM     35  CD2 LEU A   1      -4.248  -2.423  -6.375  0.00  0.00    +0.007 C 
ENDBRANCH  32  33
ENDBRANCH  27  32
ENDBRANCH  23  27
ENDBRANCH  22  25
BRANCH  22  36
ATOM     36  CB  ASP A   2       2.825  -6.082  -7.882  0.00  0.00    +0.189 C 
BRANCH  36  37
ATOM     37  CG  ASP A   2       4.149  -6.019  -7.132  0.00  0.00    +0.236 C 
ATOM     38  OD1 ASP A   2       5.036  -5.272  -7.647  0.00  0.00    -0.205 OA
ATOM     39  OD2 ASP A   2       4.144  -6.579  -6.004  0.00  0.00    -0.205 OA
ENDBRANCH  36  37
ENDBRANCH  22  36
ENDBRANCH   1  22
TORSDOF 16
ENDMDL
MODEL 15
REMARK minimizedAffinity -6.48959732
REMARK minimizedRMSD -1
REMARK  Name = LDTT_min.pdb
REMARK  20 active torsions:
REMARK  status: ('A' for Active; 'I' for Inactive)
REMARK    1  A    between atoms: N_1  and  CA_2
REMARK    2  A    between atoms: CA_2  and  C_3
REMARK    3  A    between atoms: CA_2  and  CB_5
REMARK    4  A    between atoms: CB_5  and  CG_6
REMARK    5  A    between atoms: CG_6  and  CD1_7
REMARK    6  A    between atoms: CG_6  and  CD2_8
REMARK    7  A    between atoms: N_9  and  CA_10
REMARK    8  A    between atoms: CA_10  and  C_11
REMARK    9  A    between atoms: CA_10  and  CB_13
REMARK   10  A    between atoms: CB_13  and  CG_14
REMARK   11  A    between atoms: N_17  and  CA_18
REMARK   12  A    between atoms: CA_18  and  C_19
REMARK   13  A    between atoms: CA_18  and  CB_21
REMARK   14  A    between atoms: CB_21  and  OG1_22
REMARK   15  A    between atoms: CB_21  and  CG2_23
REMARK   16  A    between atoms: N_24  and  CA_25
REMARK   17  A    between atoms: CA_25  and  C_26
REMARK   18  A    between atoms: CA_25  and  CB_29
REMARK   19  A    between atoms: CB_29  and  OG1_30
REMARK   20  A    between atoms: CB_29  and  CG2_31
REMARK                            x       y       z     vdW  Elec       q    Type
REMARK                         _______ _______ _______ _____ _____    ______ ____
ROOT
ATOM      1  C   ASP A   2       3.185  -7.084  -9.310  0.00  0.00    +0.235 C 
ATOM      2  O   ASP A   2       2.386  -7.938  -9.682  0.00  0.00    -0.274 OA
ATOM      3  N   THR A   3       3.757  -6.180 -10.196  0.00  0.00    -0.300 N 
ATOM      4  H   THR A   3       3.809  -5.236  -9.837  0.00  0.00    +0.150 HD
ENDROOT
BRANCH   3   5
ATOM      5  CA  THR A   3       3.511  -6.324 -11.638  0.00  0.00    +0.187 C 
BRANCH   5   6
ATOM      6  C   THR A   3       4.814  -6.178 -12.444  0.00  0.00    +0.237 C 
ATOM      7  O   THR A   3       4.909  -6.592 -13.596  0.00  0.00    -0.274 OA
ATOM      8  N   THR A   4       5.698  -5.285 -11.865  0.00  0.00    -0.294 N 
ATOM      9  H   THR A   4       5.814  -5.461 -10.870  0.00  0.00    +0.150 HD
BRANCH   8  10
ATOM     10  CA  THR A   4       6.978  -4.989 -12.529  0.00  0.00    +0.241 C 
BRANCH  10  11
ATOM     11  C   THR A   4       8.168  -4.750 -11.561  0.00  0.00    +0.257 C 
ATOM     12  O   THR A   4       8.603  -5.769 -10.959  0.00  0.00    -0.203 OA
ATOM     13  OXT THR A   4       8.616  -3.563 -11.591  0.00  0.00    -0.203 OA
ENDBRANCH  10  11
BRANCH  10  14
ATOM     14  CB  THR A   4       6.884  -3.651 -13.291  0.00  0.00    +0.149 C 
ATOM     15  CG2 THR A   4       6.732  -3.857 -14.793  0.00  0.00    +0.041 C 
BRANCH  14  16
ATOM     16  OG1 THR A   4       5.712  -2.906 -12.912  0.00  0.00    -0.389 OA
ATOM     17  H   THR A   4       5.653  -3.011 -11.917  0.00  0.00    +0.210 HD
ENDBRANCH  14  16
ENDBRANCH  10  14
ENDBRANCH   8  10
ENDBRANCH   5   6
BRANCH   5  18
ATOM     18  CB  THR A   3       2.564  -5.192 -12.108  0.00  0.00    +0.141 C 
ATOM     19  CG2 THR A   3       1.323  -5.680 -12.843  0.00  0.00    +0.040 C 
BRANCH  18  20
ATOM     20  OG1 THR A   3       2.153  -4.407 -10.973  0.00  0.00    -0.390 OA
ATOM     21  H   THR A   3       1.634  -4.999 -10.397  0.00  0.00    +0.210 HD
ENDBRANCH  18  20
ENDBRANCH   5  18
ENDBRANCH   3   5
BRANCH   1  22
ATOM     22  CA  ASP A   2       3.488  -6.799  -7.823  0.00  0.00    +0.175 C 
BRANCH  22  25
ATOM     23  C   LEU A   1       2.233  -4.779  -7.276  0.00  0.00    +0.199 C 
ATOM     24  O   LEU A   1       3.000  -4.120  -7.947  0.00  0.00    -0.278 OA
ATOM     25  N   ASP A   2       2.338  -6.157  -7.137  0.00  0.00    -0.304 N 
ATOM     26  H   ASP A   2       2.435  -6.403  -6.146  0.00  0.00    +0.149 HD
BRANCH  23  27
ATOM     27  CA  LEU A   1       1.043  -4.158  -6.532  0.00  0.00    +0.013 C 
BRANCH  27  28
ATOM     28  N   LEU A   1       0.957  -2.683  -6.828  0.00  0.00    +0.386 N 
ATOM     29  H   LEU A   1       1.846  -2.249  -6.546  0.00  0.00    -0.089 HD
ATOM     30  H   LEU A   1       0.194  -2.220  -6.328  0.00  0.00    -0.089 HD
ATOM     31  H   LEU A   1       0.866  -2.539  -7.841  0.00  0.00    -0.089 HD
ENDBRANCH  27  28
BRANCH  27  32
ATOM     32  CB  LEU A   1      -0.266  -4.842  -6.924  0.00  0.00    -0.004 C 
BRANCH  32  33
ATOM     33  CG  LEU A   1      -1.450  -4.594  -5.969  0.00  0.00    -0.018 C 
ATOM     34  CD1 LEU A   1      -2.606  -3.960  -6.748  0.00  0.00    +0.007 C 
ATOM     35  CD2 LEU A   1      -1.934  -5.876  -5.286  0.00  0.00    +0.007 C 
ENDBRANCH  32  33
ENDBRANCH  27  32
ENDBRANCH  23  27
ENDBRANCH  22  25
BRANCH  22  36
ATOM     36  CB  ASP A   2       3.816  -8.115  -7.134  0.00  0.00    +0.189 C 
BRANCH  36  37
ATOM     37  CG  ASP A   2       4.787  -7.909  -5.979  0.00  0.00    +0.236 C 
ATOM     38  OD1 ASP A   2       5.585  -8.869  -5.757  0.00  0.00    -0.205 OA
ATOM     39  OD2 ASP A   2       4.794  -6.746  -5.498  0.00  0.00    -0.205 OA
ENDBRANCH  36  37
ENDBRANCH  22  36
ENDBRANCH   1  22
TORSDOF 16
ENDMDL
MODEL 16
REMARK minimizedAffinity -6.43015385
REMARK minimizedRMSD -1
REMARK  Name = LDTT_min.pdb
REMARK  20 active torsions:
REMARK  status: ('A' for Active; 'I' for Inactive)
REMARK    1  A    between atoms: N_1  and  CA_2
REMARK    2  A    between atoms: CA_2  and  C_3
REMARK    3  A    between atoms: CA_2  and  CB_5
REMARK    4  A    between atoms: CB_5  and  CG_6
REMARK    5  A    between atoms: CG_6  and  CD1_7
REMARK    6  A    between atoms: CG_6  and  CD2_8
REMARK    7  A    between atoms: N_9  and  CA_10
REMARK    8  A    between atoms: CA_10  and  C_11
REMARK    9  A    between atoms: CA_10  and  CB_13
REMARK   10  A    between atoms: CB_13  and  CG_14
REMARK   11  A    between atoms: N_17  and  CA_18
REMARK   12  A    between atoms: CA_18  and  C_19
REMARK   13  A    between atoms: CA_18  and  CB_21
REMARK   14  A    between atoms: CB_21  and  OG1_22
REMARK   15  A    between atoms: CB_21  and  CG2_23
REMARK   16  A    between atoms: N_24  and  CA_25
REMARK   17  A    between atoms: CA_25  and  C_26
REMARK   18  A    between atoms: CA_25  and  CB_29
REMARK   19  A    between atoms: CB_29  and  OG1_30
REMARK   20  A    between atoms: CB_29  and  CG2_31
REMARK                            x       y       z     vdW  Elec       q    Type
REMARK                         _______ _______ _______ _____ _____    ______ ____
ROOT
ATOM      1  C   ASP A   2       7.039  -4.285 -12.399  0.00  0.00    +0.235 C 
ATOM      2  O   ASP A   2       7.238  -3.793 -11.293  0.00  0.00    -0.274 OA
ATOM      3  N   THR A   3       8.021  -4.302 -13.381  0.00  0.00    -0.300 N 
ATOM      4  H   THR A   3       8.074  -5.175 -13.889  0.00  0.00    +0.150 HD
ENDROOT
BRANCH   3   5
ATOM      5  CA  THR A   3       9.291  -3.599 -13.149  0.00  0.00    +0.187 C 
BRANCH   5   6
ATOM      6  C   THR A   3       9.797  -2.921 -14.435  0.00  0.00    +0.237 C 
ATOM      7  O   THR A   3      10.792  -3.326 -15.028  0.00  0.00    -0.274 OA
ATOM      8  N   THR A   4       8.861  -2.063 -14.986  0.00  0.00    -0.294 N 
ATOM      9  H   THR A   4       8.464  -1.440 -14.287  0.00  0.00    +0.150 HD
BRANCH   8  10
ATOM     10  CA  THR A   4       9.162  -1.365 -16.246  0.00  0.00    +0.241 C 
BRANCH  10  11
ATOM     11  C   THR A   4       9.081   0.183 -16.162  0.00  0.00    +0.257 C 
ATOM     12  O   THR A   4       8.910   0.787 -17.255  0.00  0.00    -0.203 OA
ATOM     13  OXT THR A   4       9.090   0.628 -14.973  0.00  0.00    -0.203 OA
ENDBRANCH  10  11
BRANCH  10  14
ATOM     14  CB  THR A   4       8.096  -1.705 -17.308  0.00  0.00    +0.149 C 
ATOM     15  CG2 THR A   4       7.778  -3.195 -17.343  0.00  0.00    +0.041 C 
BRANCH  14  16
ATOM     16  OG1 THR A   4       6.835  -1.076 -17.015  0.00  0.00    -0.389 OA
ATOM     17  H   THR A   4       7.074  -0.153 -16.710  0.00  0.00    +0.210 HD
ENDBRANCH  14  16
ENDBRANCH  10  14
ENDBRANCH   8  10
ENDBRANCH   5   6
BRANCH   5  18
ATOM     18  CB  THR A   3      10.371  -4.624 -12.727  0.00  0.00    +0.141 C 
ATOM     19  CG2 THR A   3      10.480  -4.836 -11.223  0.00  0.00    +0.040 C 
BRANCH  18  20
ATOM     20  OG1 THR A   3      10.103  -5.891 -13.356  0.00  0.00    -0.390 OA
ATOM     21  H   THR A   3       9.250  -6.205 -13.000  0.00  0.00    +0.210 HD
ENDBRANCH  18  20
ENDBRANCH   5  18
ENDBRANCH   3   5
BRANCH   1  22
ATOM     22  CA  ASP A   2       5.772  -5.094 -12.750  0.00  0.00    +0.175 C 
BRANCH  22  25
ATOM     23  C   LEU A   1       4.189  -5.419 -10.922  0.00  0.00    +0.199 C 
ATOM     24  O   LEU A   1       4.782  -6.423 -10.585  0.00  0.00    -0.278 OA
ATOM     25  N   ASP A   2       4.587  -4.623 -11.988  0.00  0.00    -0.304 N 
ATOM     26  H   ASP A   2       3.828  -4.552 -12.674  0.00  0.00    +0.149 HD
BRANCH  23  27
ATOM     27  CA  LEU A   1       2.948  -4.905 -10.179  0.00  0.00    +0.013 C 
BRANCH  27  28
ATOM     28  N   LEU A   1       2.271  -3.824 -10.982  0.00  0.00    +0.386 N 
ATOM     29  H   LEU A   1       2.954  -3.071 -11.142  0.00  0.00    -0.089 HD
ATOM     30  H   LEU A   1       1.454  -3.429 -10.510  0.00  0.00    -0.089 HD
ATOM     31  H   LEU A   1       2.013  -4.192 -11.906  0.00  0.00    -0.089 HD
ENDBRANCH  27  28
BRANCH  27  32
ATOM     32  CB  LEU A   1       1.963  -6.040  -9.905  0.00  0.00    -0.004 C 
BRANCH  32  33
ATOM     33  CG  LEU A   1       1.765  -6.396  -8.418  0.00  0.00    -0.018 C 
ATOM     34  CD1 LEU A   1       2.265  -7.821  -8.168  0.00  0.00    +0.007 C 
ATOM     35  CD2 LEU A   1       2.489  -5.427  -7.479  0.00  0.00    +0.007 C 
ENDBRANCH  32  33
ENDBRANCH  27  32
ENDBRANCH  23  27
ENDBRANCH  22  25
BRANCH  22  36
ATOM     36  CB  ASP A   2       5.502  -4.952 -14.239  0.00  0.00    +0.189 C 
BRANCH  36  37
ATOM     37  CG  ASP A   2       4.909  -6.229 -14.820  0.00  0.00    +0.236 C 
ATOM     38  OD1 ASP A   2       5.439  -6.640 -15.896  0.00  0.00    -0.205 OA
ATOM     39  OD2 ASP A   2       4.081  -6.812 -14.072  0.00  0.00    -0.205 OA
ENDBRANCH  36  37
ENDBRANCH  22  36
ENDBRANCH   1  22
TORSDOF 16
ENDMDL
MODEL 17
REMARK minimizedAffinity -6.42877626
REMARK minimizedRMSD -1
REMARK  Name = LDTT_min.pdb
REMARK  20 active torsions:
REMARK  status: ('A' for Active; 'I' for Inactive)
REMARK    1  A    between atoms: N_1  and  CA_2
REMARK    2  A    between atoms: CA_2  and  C_3
REMARK    3  A    between atoms: CA_2  and  CB_5
REMARK    4  A    between atoms: CB_5  and  CG_6
REMARK    5  A    between atoms: CG_6  and  CD1_7
REMARK    6  A    between atoms: CG_6  and  CD2_8
REMARK    7  A    between atoms: N_9  and  CA_10
REMARK    8  A    between atoms: CA_10  and  C_11
REMARK    9  A    between atoms: CA_10  and  CB_13
REMARK   10  A    between atoms: CB_13  and  CG_14
REMARK   11  A    between atoms: N_17  and  CA_18
REMARK   12  A    between atoms: CA_18  and  C_19
REMARK   13  A    between atoms: CA_18  and  CB_21
REMARK   14  A    between atoms: CB_21  and  OG1_22
REMARK   15  A    between atoms: CB_21  and  CG2_23
REMARK   16  A    between atoms: N_24  and  CA_25
REMARK   17  A    between atoms: CA_25  and  C_26
REMARK   18  A    between atoms: CA_25  and  CB_29
REMARK   19  A    between atoms: CB_29  and  OG1_30
REMARK   20  A    between atoms: CB_29  and  CG2_31
REMARK                            x       y       z     vdW  Elec       q    Type
REMARK                         _______ _______ _______ _____ _____    ______ ____
ROOT
ATOM      1  C   ASP A   2       6.140  -4.031 -12.614  0.00  0.00    +0.235 C 
ATOM      2  O   ASP A   2       5.821  -2.958 -13.116  0.00  0.00    -0.274 OA
ATOM      3  N   THR A   3       5.916  -5.239 -13.261  0.00  0.00    -0.300 N 
ATOM      4  H   THR A   3       6.687  -5.889 -13.187  0.00  0.00    +0.150 HD
ENDROOT
BRANCH   3   5
ATOM      5  CA  THR A   3       5.159  -5.257 -14.521  0.00  0.00    +0.187 C 
BRANCH   5   6
ATOM      6  C   THR A   3       4.156  -6.423 -14.554  0.00  0.00    +0.237 C 
ATOM      7  O   THR A   3       4.294  -7.371 -15.321  0.00  0.00    -0.274 OA
ATOM      8  N   THR A   4       3.318  -6.432 -13.453  0.00  0.00    -0.294 N 
ATOM      9  H   THR A   4       2.919  -5.513 -13.276  0.00  0.00    +0.150 HD
BRANCH   8  10
ATOM     10  CA  THR A   4       2.324  -7.508 -13.299  0.00  0.00    +0.241 C 
BRANCH  10  11
ATOM     11  C   THR A   4       0.857  -7.074 -13.563  0.00  0.00    +0.257 C 
ATOM     12  O   THR A   4       0.090  -7.969 -14.011  0.00  0.00    -0.203 OA
ATOM     13  OXT THR A   4       0.602  -5.890 -13.185  0.00  0.00    -0.203 OA
ENDBRANCH  10  11
BRANCH  10  14
ATOM     14  CB  THR A   4       2.281  -7.982 -11.831  0.00  0.00    +0.149 C 
ATOM     15  CG2 THR A   4       3.067  -7.059 -10.908  0.00  0.00    +0.041 C 
BRANCH  14  16
ATOM     16  OG1 THR A   4       0.941  -7.959 -11.305  0.00  0.00    -0.389 OA
ATOM     17  H   THR A   4       0.369  -8.316 -12.046  0.00  0.00    +0.210 HD
ENDBRANCH  14  16
ENDBRANCH  10  14
ENDBRANCH   8  10
ENDBRANCH   5   6
BRANCH   5  18
ATOM     18  CB  THR A   3       6.139  -5.475 -15.700  0.00  0.00    +0.141 C 
ATOM     19  CG2 THR A   3       6.718  -4.190 -16.279  0.00  0.00    +0.040 C 
BRANCH  18  20
ATOM     20  OG1 THR A   3       7.223  -6.321 -15.274  0.00  0.00    -0.390 OA
ATOM     21  H   THR A   3       7.706  -5.831 -14.582  0.00  0.00    +0.210 HD
ENDBRANCH  18  20
ENDBRANCH   5  18
ENDBRANCH   3   5
BRANCH   1  22
ATOM     22  CA  ASP A   2       6.980  -4.144 -11.323  0.00  0.00    +0.175 C 
BRANCH  22  25
ATOM     23  C   LEU A   1       6.228  -5.210  -9.261  0.00  0.00    +0.199 C 
ATOM     24  O   LEU A   1       6.059  -4.119  -8.758  0.00  0.00    -0.278 OA
ATOM     25  N   ASP A   2       6.669  -5.384 -10.567  0.00  0.00    -0.304 N 
ATOM     26  H   ASP A   2       7.533  -5.936 -10.574  0.00  0.00    +0.149 HD
BRANCH  23  27
ATOM     27  CA  LEU A   1       5.940  -6.518  -8.513  0.00  0.00    +0.013 C 
BRANCH  27  28
ATOM     28  N   LEU A   1       7.133  -7.437  -8.591  0.00  0.00    +0.386 N 
ATOM     29  H   LEU A   1       7.338  -7.608  -9.585  0.00  0.00    -0.089 HD
ATOM     30  H   LEU A   1       6.975  -8.336  -8.130  0.00  0.00    -0.089 HD
ATOM     31  H   LEU A   1       7.956  -6.967  -8.196  0.00  0.00    -0.089 HD
ENDBRANCH  27  28
BRANCH  27  32
ATOM     32  CB  LEU A   1       5.591  -6.248  -7.050  0.00  0.00    -0.004 C 
BRANCH  32  33
ATOM     33  CG  LEU A   1       4.158  -6.634  -6.633  0.00  0.00    -0.018 C 
ATOM     34  CD1 LEU A   1       3.181  -5.564  -7.128  0.00  0.00    +0.007 C 
ATOM     35  CD2 LEU A   1       3.735  -8.003  -7.174  0.00  0.00    +0.007 C 
ENDBRANCH  32  33
ENDBRANCH  27  32
ENDBRANCH  23  27
ENDBRANCH  22  25
BRANCH  22  36
ATOM     36  CB  ASP A   2       8.453  -4.142 -11.702  0.00  0.00    +0.189 C 
BRANCH  36  37
ATOM     37  CG  ASP A   2       9.025  -5.553 -11.713  0.00  0.00    +0.236 C 
ATOM     38  OD1 ASP A   2       9.451  -5.981 -10.597  0.00  0.00    -0.205 OA
ATOM     39  OD2 ASP A   2       8.849  -6.185 -12.787  0.00  0.00    -0.205 OA
ENDBRANCH  36  37
ENDBRANCH  22  36
ENDBRANCH   1  22
TORSDOF 16
ENDMDL
MODEL 18
REMARK minimizedAffinity -6.42298412
REMARK minimizedRMSD -1
REMARK  Name = LDTT_min.pdb
REMARK  20 active torsions:
REMARK  status: ('A' for Active; 'I' for Inactive)
REMARK    1  A    between atoms: N_1  and  CA_2
REMARK    2  A    between atoms: CA_2  and  C_3
REMARK    3  A    between atoms: CA_2  and  CB_5
REMARK    4  A    between atoms: CB_5  and  CG_6
REMARK    5  A    between atoms: CG_6  and  CD1_7
REMARK    6  A    between atoms: CG_6  and  CD2_8
REMARK    7  A    between atoms: N_9  and  CA_10
REMARK    8  A    between atoms: CA_10  and  C_11
REMARK    9  A    between atoms: CA_10  and  CB_13
REMARK   10  A    between atoms: CB_13  and  CG_14
REMARK   11  A    between atoms: N_17  and  CA_18
REMARK   12  A    between atoms: CA_18  and  C_19
REMARK   13  A    between atoms: CA_18  and  CB_21
REMARK   14  A    between atoms: CB_21  and  OG1_22
REMARK   15  A    between atoms: CB_21  and  CG2_23
REMARK   16  A    between atoms: N_24  and  CA_25
REMARK   17  A    between atoms: CA_25  and  C_26
REMARK   18  A    between atoms: CA_25  and  CB_29
REMARK   19  A    between atoms: CB_29  and  OG1_30
REMARK   20  A    between atoms: CB_29  and  CG2_31
REMARK                            x       y       z     vdW  Elec       q    Type
REMARK                         _______ _______ _______ _____ _____    ______ ____
ROOT
ATOM      1  C   ASP A   2       5.906  -4.149 -12.663  0.00  0.00    +0.235 C 
ATOM      2  O   ASP A   2       5.472  -3.051 -12.997  0.00  0.00    -0.274 OA
ATOM      3  N   THR A   3       5.077  -5.140 -12.154  0.00  0.00    -0.300 N 
ATOM      4  H   THR A   3       5.278  -6.064 -12.513  0.00  0.00    +0.150 HD
ENDROOT
BRANCH   3   5
ATOM      5  CA  THR A   3       3.666  -4.834 -11.878  0.00  0.00    +0.187 C 
BRANCH   5   6
ATOM      6  C   THR A   3       3.448  -4.485 -10.395  0.00  0.00    +0.237 C 
ATOM      7  O   THR A   3       3.095  -3.364 -10.042  0.00  0.00    -0.274 OA
ATOM      8  N   THR A   4       3.382  -5.609  -9.591  0.00  0.00    -0.294 N 
ATOM      9  H   THR A   4       4.143  -6.256  -9.784  0.00  0.00    +0.150 HD
BRANCH   8  10
ATOM     10  CA  THR A   4       3.131  -5.461  -8.147  0.00  0.00    +0.241 C 
BRANCH  10  11
ATOM     11  C   THR A   4       3.684  -6.620  -7.274  0.00  0.00    +0.257 C 
ATOM     12  O   THR A   4       3.610  -7.773  -7.777  0.00  0.00    -0.203 OA
ATOM     13  OXT THR A   4       4.240  -6.227  -6.203  0.00  0.00    -0.203 OA
ENDBRANCH  10  11
BRANCH  10  14
ATOM     14  CB  THR A   4       1.616  -5.514  -7.865  0.00  0.00    +0.149 C 
ATOM     15  CG2 THR A   4       1.132  -4.284  -7.105  0.00  0.00    +0.041 C 
BRANCH  14  16
ATOM     16  OG1 THR A   4       0.848  -5.508  -9.082  0.00  0.00    -0.389 OA
ATOM     17  H   THR A   4       1.343  -6.121  -9.700  0.00  0.00    +0.210 HD
ENDBRANCH  14  16
ENDBRANCH  10  14
ENDBRANCH   8  10
ENDBRANCH   5   6
BRANCH   5  18
ATOM     18  CB  THR A   3       2.806  -6.088 -12.174  0.00  0.00    +0.141 C 
ATOM     19  CG2 THR A   3       1.422  -5.780 -12.729  0.00  0.00    +0.040 C 
BRANCH  18  20
ATOM     20  OG1 THR A   3       3.501  -6.939 -13.104  0.00  0.00    -0.390 OA
ATOM     21  H   THR A   3       3.579  -6.437 -13.938  0.00  0.00    +0.210 HD
ENDBRANCH  18  20
ENDBRANCH   5  18
ENDBRANCH   3   5
BRANCH   1  22
ATOM     22  CA  ASP A   2       7.352  -4.609 -12.945  0.00  0.00    +0.175 C 
BRANCH  22  25
ATOM     23  C   LEU A   1       8.559  -3.215 -14.543  0.00  0.00    +0.199 C 
ATOM     24  O   LEU A   1       8.093  -3.859 -15.459  0.00  0.00    -0.278 OA
ATOM     25  N   ASP A   2       8.256  -3.461 -13.210  0.00  0.00    -0.304 N 
ATOM     26  H   ASP A   2       9.116  -3.660 -12.687  0.00  0.00    +0.149 HD
BRANCH  23  27
ATOM     27  CA  LEU A   1       9.513  -2.034 -14.766  0.00  0.00    +0.013 C 
BRANCH  27  28
ATOM     28  N   LEU A   1      10.902  -2.391 -14.300  0.00  0.00    +0.386 N 
ATOM     29  H   LEU A   1      10.848  -2.650 -13.305  0.00  0.00    -0.089 HD
ATOM     30  H   LEU A   1      11.567  -1.621 -14.402  0.00  0.00    -0.089 HD
ATOM     31  H   LEU A   1      11.231  -3.223 -14.805  0.00  0.00    -0.089 HD
ENDBRANCH  27  28
BRANCH  27  32
ATOM     32  CB  LEU A   1       9.550  -1.629 -16.239  0.00  0.00    -0.004 C 
BRANCH  32  33
ATOM     33  CG  LEU A   1       8.605  -0.476 -16.629  0.00  0.00    -0.018 C 
ATOM     34  CD1 LEU A   1       9.323   0.860 -16.422  0.00  0.00    +0.007 C 
ATOM     35  CD2 LEU A   1       8.119  -0.577 -18.077  0.00  0.00    +0.007 C 
ENDBRANCH  32  33
ENDBRANCH  27  32
ENDBRANCH  23  27
ENDBRANCH  22  25
BRANCH  22  36
ATOM     36  CB  ASP A   2       7.860  -5.382 -11.738  0.00  0.00    +0.189 C 
BRANCH  36  37
ATOM     37  CG  ASP A   2       9.122  -4.751 -11.166  0.00  0.00    +0.236 C 
ATOM     38  OD1 ASP A   2      10.206  -5.077 -11.739  0.00  0.00    -0.205 OA
ATOM     39  OD2 ASP A   2       8.920  -3.852 -10.308  0.00  0.00    -0.205 OA
ENDBRANCH  36  37
ENDBRANCH  22  36
ENDBRANCH   1  22
TORSDOF 16
ENDMDL
MODEL 19
REMARK minimizedAffinity -6.41575956
REMARK minimizedRMSD -1
REMARK  Name = LDTT_min.pdb
REMARK  20 active torsions:
REMARK  status: ('A' for Active; 'I' for Inactive)
REMARK    1  A    between atoms: N_1  and  CA_2
REMARK    2  A    between atoms: CA_2  and  C_3
REMARK    3  A    between atoms: CA_2  and  CB_5
REMARK    4  A    between atoms: CB_5  and  CG_6
REMARK    5  A    between atoms: CG_6  and  CD1_7
REMARK    6  A    between atoms: CG_6  and  CD2_8
REMARK    7  A    between atoms: N_9  and  CA_10
REMARK    8  A    between atoms: CA_10  and  C_11
REMARK    9  A    between atoms: CA_10  and  CB_13
REMARK   10  A    between atoms: CB_13  and  CG_14
REMARK   11  A    between atoms: N_17  and  CA_18
REMARK   12  A    between atoms: CA_18  and  C_19
REMARK   13  A    between atoms: CA_18  and  CB_21
REMARK   14  A    between atoms: CB_21  and  OG1_22
REMARK   15  A    between atoms: CB_21  and  CG2_23
REMARK   16  A    between atoms: N_24  and  CA_25
REMARK   17  A    between atoms: CA_25  and  C_26
REMARK   18  A    between atoms: CA_25  and  CB_29
REMARK   19  A    between atoms: CB_29  and  OG1_30
REMARK   20  A    between atoms: CB_29  and  CG2_31
REMARK                            x       y       z     vdW  Elec       q    Type
REMARK                         _______ _______ _______ _____ _____    ______ ____
ROOT
ATOM      1  C   ASP A   2       6.960  -5.200 -12.167  0.00  0.00    +0.235 C 
ATOM      2  O   ASP A   2       7.339  -6.357 -12.006  0.00  0.00    -0.274 OA
ATOM      3  N   THR A   3       7.145  -4.529 -13.368  0.00  0.00    -0.300 N 
ATOM      4  H   THR A   3       6.344  -3.982 -13.656  0.00  0.00    +0.150 HD
ENDROOT
BRANCH   3   5
ATOM      5  CA  THR A   3       7.930  -5.161 -14.438  0.00  0.00    +0.187 C 
BRANCH   5   6
ATOM      6  C   THR A   3       8.942  -4.173 -15.046  0.00  0.00    +0.237 C 
ATOM      7  O   THR A   3       9.919  -4.560 -15.680  0.00  0.00    -0.274 OA
ATOM      8  N   THR A   4       8.464  -2.874 -15.072  0.00  0.00    -0.294 N 
ATOM      9  H   THR A   4       8.066  -2.601 -14.176  0.00  0.00    +0.150 HD
BRANCH   8  10
ATOM     10  CA  THR A   4       9.286  -1.805 -15.664  0.00  0.00    +0.241 C 
BRANCH  10  11
ATOM     11  C   THR A   4       9.628  -0.642 -14.694  0.00  0.00    +0.257 C 
ATOM     12  O   THR A   4      10.462  -0.908 -13.786  0.00  0.00    -0.203 OA
ATOM     13  OXT THR A   4       9.095   0.462 -15.019  0.00  0.00    -0.203 OA
ENDBRANCH  10  11
BRANCH  10  14
ATOM     14  CB  THR A   4       8.502  -1.094 -16.786  0.00  0.00    +0.149 C 
ATOM     15  CG2 THR A   4       8.740  -1.738 -18.147  0.00  0.00    +0.041 C 
BRANCH  14  16
ATOM     16  OG1 THR A   4       7.080  -1.194 -16.587  0.00  0.00    -0.389 OA
ATOM     17  H   THR A   4       6.949  -1.045 -15.605  0.00  0.00    +0.210 HD
ENDBRANCH  14  16
ENDBRANCH  10  14
ENDBRANCH   8  10
ENDBRANCH   5   6
BRANCH   5  18
ATOM     18  CB  THR A   3       6.978  -5.588 -15.583  0.00  0.00    +0.141 C 
ATOM     19  CG2 THR A   3       6.215  -6.878 -15.313  0.00  0.00    +0.040 C 
BRANCH  18  20
ATOM     20  OG1 THR A   3       6.032  -4.534 -15.840  0.00  0.00    -0.390 OA
ATOM     21  H   THR A   3       5.491  -4.441 -15.033  0.00  0.00    +0.210 HD
ENDBRANCH  18  20
ENDBRANCH   5  18
ENDBRANCH   3   5
BRANCH   1  22
ATOM     22  CA  ASP A   2       6.085  -4.447 -11.142  0.00  0.00    +0.175 C 
BRANCH  22  25
ATOM     23  C   LEU A   1       3.651  -4.466 -10.967  0.00  0.00    +0.199 C 
ATOM     24  O   LEU A   1       3.613  -3.315 -11.349  0.00  0.00    -0.278 OA
ATOM     25  N   ASP A   2       4.833  -5.185 -10.836  0.00  0.00    -0.304 N 
ATOM     26  H   ASP A   2       4.936  -5.515  -9.870  0.00  0.00    +0.149 HD
BRANCH  23  27
ATOM     27  CA  LEU A   1       2.387  -5.263 -10.619  0.00  0.00    +0.013 C 
BRANCH  27  28
ATOM     28  N   LEU A   1       1.554  -5.485 -11.856  0.00  0.00    +0.386 N 
ATOM     29  H   LEU A   1       1.323  -4.564 -12.254  0.00  0.00    -0.089 HD
ATOM     30  H   LEU A   1       0.683  -5.987 -11.666  0.00  0.00    -0.089 HD
ATOM     31  H   LEU A   1       2.112  -5.981 -12.562  0.00  0.00    -0.089 HD
ENDBRANCH  27  28
BRANCH  27  32
ATOM     32  CB  LEU A   1       2.741  -6.607  -9.986  0.00  0.00    -0.004 C 
BRANCH  32  33
ATOM     33  CG  LEU A   1       2.432  -6.728  -8.480  0.00  0.00    -0.018 C 
ATOM     34  CD1 LEU A   1       1.206  -5.876  -8.144  0.00  0.00    +0.007 C 
ATOM     35  CD2 LEU A   1       2.185  -8.175  -8.045  0.00  0.00    +0.007 C 
ENDBRANCH  32  33
ENDBRANCH  27  32
ENDBRANCH  23  27
ENDBRANCH  22  25
BRANCH  22  36
ATOM     36  CB  ASP A   2       6.886  -4.262  -9.863  0.00  0.00    +0.189 C 
BRANCH  36  37
ATOM     37  CG  ASP A   2       6.195  -4.919  -8.676  0.00  0.00    +0.236 C 
ATOM     38  OD1 ASP A   2       5.317  -4.214  -8.093  0.00  0.00    -0.205 OA
ATOM     39  OD2 ASP A   2       6.458  -6.141  -8.524  0.00  0.00    -0.205 OA
ENDBRANCH  36  37
ENDBRANCH  22  36
ENDBRANCH   1  22
TORSDOF 16
ENDMDL
MODEL 20
REMARK minimizedAffinity -6.29945087
REMARK minimizedRMSD -1
REMARK  Name = LDTT_min.pdb
REMARK  20 active torsions:
REMARK  status: ('A' for Active; 'I' for Inactive)
REMARK    1  A    between atoms: N_1  and  CA_2
REMARK    2  A    between atoms: CA_2  and  C_3
REMARK    3  A    between atoms: CA_2  and  CB_5
REMARK    4  A    between atoms: CB_5  and  CG_6
REMARK    5  A    between atoms: CG_6  and  CD1_7
REMARK    6  A    between atoms: CG_6  and  CD2_8
REMARK    7  A    between atoms: N_9  and  CA_10
REMARK    8  A    between atoms: CA_10  and  C_11
REMARK    9  A    between atoms: CA_10  and  CB_13
REMARK   10  A    between atoms: CB_13  and  CG_14
REMARK   11  A    between atoms: N_17  and  CA_18
REMARK   12  A    between atoms: CA_18  and  C_19
REMARK   13  A    between atoms: CA_18  and  CB_21
REMARK   14  A    between atoms: CB_21  and  OG1_22
REMARK   15  A    between atoms: CB_21  and  CG2_23
REMARK   16  A    between atoms: N_24  and  CA_25
REMARK   17  A    between atoms: CA_25  and  C_26
REMARK   18  A    between atoms: CA_25  and  CB_29
REMARK   19  A    between atoms: CB_29  and  OG1_30
REMARK   20  A    between atoms: CB_29  and  CG2_31
REMARK                            x       y       z     vdW  Elec       q    Type
REMARK                         _______ _______ _______ _____ _____    ______ ____
ROOT
ATOM      1  C   ASP A   2       6.004  -3.873 -12.056  0.00  0.00    +0.235 C 
ATOM      2  O   ASP A   2       6.265  -4.028 -10.867  0.00  0.00    -0.274 OA
ATOM      3  N   THR A   3       6.992  -3.600 -12.993  0.00  0.00    -0.300 N 
ATOM      4  H   THR A   3       6.882  -4.108 -13.861  0.00  0.00    +0.150 HD
ENDROOT
BRANCH   3   5
ATOM      5  CA  THR A   3       8.370  -3.357 -12.544  0.00  0.00    +0.187 C 
BRANCH   5   6
ATOM      6  C   THR A   3       9.058  -2.284 -13.407  0.00  0.00    +0.237 C 
ATOM      7  O   THR A   3       9.889  -1.514 -12.936  0.00  0.00    -0.274 OA
ATOM      8  N   THR A   4       8.880  -2.500 -14.762  0.00  0.00    -0.294 N 
ATOM      9  H   THR A   4       7.907  -2.690 -14.989  0.00  0.00    +0.150 HD
BRANCH   8  10
ATOM     10  CA  THR A   4       9.510  -1.593 -15.736  0.00  0.00    +0.241 C 
BRANCH  10  11
ATOM     11  C   THR A   4       8.521  -0.657 -16.481  0.00  0.00    +0.257 C 
ATOM     12  O   THR A   4       7.359  -1.113 -16.660  0.00  0.00    -0.203 OA
ATOM     13  OXT THR A   4       8.994   0.496 -16.717  0.00  0.00    -0.203 OA
ENDBRANCH  10  11
BRANCH  10  14
ATOM     14  CB  THR A   4      10.143  -2.406 -16.885  0.00  0.00    +0.149 C 
ATOM     15  CG2 THR A   4       9.968  -3.907 -16.688  0.00  0.00    +0.041 C 
BRANCH  14  16
ATOM     16  OG1 THR A   4       9.501  -2.133 -18.144  0.00  0.00    -0.389 OA
ATOM     17  H   THR A   4       9.357  -1.142 -18.148  0.00  0.00    +0.210 HD
ENDBRANCH  14  16
ENDBRANCH  10  14
ENDBRANCH   8  10
ENDBRANCH   5   6
BRANCH   5  18
ATOM     18  CB  THR A   3       9.195  -4.658 -12.705  0.00  0.00    +0.141 C 
ATOM     19  CG2 THR A   3       8.553  -5.697 -13.615  0.00  0.00    +0.040 C 
BRANCH  18  20
ATOM     20  OG1 THR A   3      10.503  -4.338 -13.215  0.00  0.00    -0.390 OA
ATOM     21  H   THR A   3      10.371  -3.966 -14.108  0.00  0.00    +0.210 HD
ENDBRANCH  18  20
ENDBRANCH   5  18
ENDBRANCH   3   5
BRANCH   1  22
ATOM     22  CA  ASP A   2       4.610  -4.149 -12.660  0.00  0.00    +0.175 C 
BRANCH  22  25
ATOM     23  C   LEU A   1       4.805  -5.878 -14.371  0.00  0.00    +0.199 C 
ATOM     24  O   LEU A   1       5.257  -5.061 -15.146  0.00  0.00    -0.278 OA
ATOM     25  N   ASP A   2       4.453  -5.569 -13.063  0.00  0.00    -0.304 N 
ATOM     26  H   ASP A   2       3.465  -5.794 -12.905  0.00  0.00    +0.149 HD
BRANCH  23  27
ATOM     27  CA  LEU A   1       4.605  -7.351 -14.748  0.00  0.00    +0.013 C 
BRANCH  27  28
ATOM     28  N   LEU A   1       3.386  -7.505 -15.621  0.00  0.00    +0.386 N 
ATOM     29  H   LEU A   1       2.576  -7.134 -15.105  0.00  0.00    -0.089 HD
ATOM     30  H   LEU A   1       3.196  -8.478 -15.873  0.00  0.00    -0.089 HD
ATOM     31  H   LEU A   1       3.491  -6.926 -16.464  0.00  0.00    -0.089 HD
ENDBRANCH  27  28
BRANCH  27  32
ATOM     32  CB  LEU A   1       5.832  -7.904 -15.471  0.00  0.00    -0.004 C 
BRANCH  32  33
ATOM     33  CG  LEU A   1       6.495  -9.126 -14.804  0.00  0.00    -0.018 C 
ATOM     34  CD1 LEU A   1       7.873  -9.359 -15.430  0.00  0.00    +0.007 C 
ATOM     35  CD2 LEU A   1       6.642  -8.962 -13.289  0.00  0.00    +0.007 C 
ENDBRANCH  32  33
ENDBRANCH  27  32
ENDBRANCH  23  27
ENDBRANCH  22  25
BRANCH  22  36
ATOM     36  CB  ASP A   2       3.555  -3.800 -11.622  0.00  0.00    +0.189 C 
BRANCH  36  37
ATOM     37  CG  ASP A   2       2.732  -5.021 -11.236  0.00  0.00    +0.236 C 
ATOM     38  OD1 ASP A   2       1.737  -5.271 -11.981  0.00  0.00    -0.205 OA
ATOM     39  OD2 ASP A   2       3.238  -5.731 -10.327  0.00  0.00    -0.205 OA
ENDBRANCH  36  37
ENDBRANCH  22  36
ENDBRANCH   1  22
TORSDOF 16
ENDMDL
