MODEL 1
REMARK VINA RESULT:      -7.7      0.000      0.000
REMARK  Name = Leu-AMC_min.pdb
REMARK  8 active torsions:
REMARK  status: ('A' for Active; 'I' for Inactive)
REMARK    1  A    between atoms: C1_1  and  C2_2
REMARK    2  A    between atoms: C9_11  and  N1_13
REMARK    3  A    between atoms: C11_14  and  C12_16
REMARK    4  A    between atoms: C12_16  and  C13_17
REMARK    5  A    between atoms: C12_16  and  N2_21
REMARK    6  A    between atoms: C13_17  and  C14_18
REMARK    7  A    between atoms: C14_18  and  C15_19
REMARK    8  A    between atoms: C14_18  and  C16_20
REMARK                            x       y       z     vdW  Elec       q    Type
REMARK                         _______ _______ _______ _____ _____    ______ ____
ROOT
ATOM      1  C1  UNL     1       3.986  -7.047 -14.676  0.00  0.00    +0.045 C 
ATOM      2  C2  UNL     1       4.386  -5.820 -13.913  0.00  0.00    -0.033 A 
ATOM      3  C3  UNL     1       5.374  -5.026 -14.349  0.00  0.00    +0.096 A 
ATOM      4  C4  UNL     1       5.809  -3.807 -13.646  0.00  0.00    +0.337 A 
ATOM      5  O1  UNL     1       6.735  -3.132 -14.078  0.00  0.00    -0.245 OA
ATOM      6  O2  UNL     1       5.122  -3.478 -12.492  0.00  0.00    -0.422 OA
ATOM      7  C5  UNL     1       4.075  -4.288 -12.010  0.00  0.00    +0.141 A 
ATOM      8  C6  UNL     1       3.693  -5.456 -12.668  0.00  0.00    +0.021 A 
ATOM      9  C7  UNL     1       2.664  -6.211 -12.089  0.00  0.00    +0.013 A 
ATOM     10  C8  UNL     1       2.050  -5.801 -10.891  0.00  0.00    +0.024 A 
ATOM     11  C9  UNL     1       2.420  -4.601 -10.277  0.00  0.00    +0.037 A 
ATOM     12  C10 UNL     1       3.455  -3.852 -10.839  0.00  0.00    +0.070 A 
ENDROOT
BRANCH  11  13
ATOM     13  N1  UNL     1       1.763  -4.195  -9.095  0.00  0.00    -0.284 N 
ATOM     14  C11 UNL     1       2.134  -4.611  -7.825  0.00  0.00    +0.234 C 
ATOM     15  O3  UNL     1       3.176  -5.216  -7.560  0.00  0.00    -0.274 OA
ATOM     16  H8  UNL     1       1.094  -3.438  -9.167  0.00  0.00    +0.155 HD
BRANCH  14  17
ATOM     17  C12 UNL     1       1.124  -4.273  -6.703  0.00  0.00    +0.138 C 
BRANCH  17  18
ATOM     18  N2  UNL     1       0.976  -2.802  -6.660  0.00  0.00    -0.320 NA
ATOM     19  H19 UNL     1       0.097  -2.607  -6.165  0.00  0.00    +0.119 HD
ATOM     20  H20 UNL     1       0.801  -2.461  -7.606  0.00  0.00    +0.119 HD
ENDBRANCH  17  18
BRANCH  17  21
ATOM     21  C13 UNL     1      -0.227  -4.958  -6.974  0.00  0.00    +0.031 C 
BRANCH  21  22
ATOM     22  C14 UNL     1      -1.365  -4.550  -6.011  0.00  0.00    -0.015 C 
ATOM     23  C15 UNL     1      -2.517  -3.813  -6.696  0.00  0.00    +0.007 C 
ATOM     24  C16 UNL     1      -1.918  -5.791  -5.301  0.00  0.00    +0.007 C 
ENDBRANCH  21  22
ENDBRANCH  17  21
ENDBRANCH  14  17
ENDBRANCH  11  13
TORSDOF 5
ENDMDL
MODEL 2
REMARK VINA RESULT:      -7.7      2.233      2.896
REMARK  Name = Leu-AMC_min.pdb
REMARK  8 active torsions:
REMARK  status: ('A' for Active; 'I' for Inactive)
REMARK    1  A    between atoms: C1_1  and  C2_2
REMARK    2  A    between atoms: C9_11  and  N1_13
REMARK    3  A    between atoms: C11_14  and  C12_16
REMARK    4  A    between atoms: C12_16  and  C13_17
REMARK    5  A    between atoms: C12_16  and  N2_21
REMARK    6  A    between atoms: C13_17  and  C14_18
REMARK    7  A    between atoms: C14_18  and  C15_19
REMARK    8  A    between atoms: C14_18  and  C16_20
REMARK                            x       y       z     vdW  Elec       q    Type
REMARK                         _______ _______ _______ _____ _____    ______ ____
ROOT
ATOM      1  C1  UNL     1       6.987  -3.375 -14.264  0.00  0.00    +0.045 C 
ATOM      2  C2  UNL     1       7.210  -3.779 -12.837  0.00  0.00    -0.033 A 
ATOM      3  C3  UNL     1       8.448  -3.878 -12.333  0.00  0.00    +0.096 A 
ATOM      4  C4  UNL     1       8.730  -4.267 -10.940  0.00  0.00    +0.337 A 
ATOM      5  O1  UNL     1       9.883  -4.365 -10.540  0.00  0.00    -0.245 OA
ATOM      6  O2  UNL     1       7.636  -4.510 -10.130  0.00  0.00    -0.422 OA
ATOM      7  C5  UNL     1       6.323  -4.410 -10.629  0.00  0.00    +0.141 A 
ATOM      8  C6  UNL     1       6.069  -4.071 -11.957  0.00  0.00    +0.021 A 
ATOM      9  C7  UNL     1       4.729  -4.033 -12.364  0.00  0.00    +0.013 A 
ATOM     10  C8  UNL     1       3.689  -4.328 -11.464  0.00  0.00    +0.024 A 
ATOM     11  C9  UNL     1       3.968  -4.620 -10.126  0.00  0.00    +0.037 A 
ATOM     12  C10 UNL     1       5.301  -4.676  -9.716  0.00  0.00    +0.070 A 
ENDROOT
BRANCH  11  13
ATOM     13  N1  UNL     1       2.904  -4.877  -9.234  0.00  0.00    -0.284 N 
ATOM     14  C11 UNL     1       2.309  -3.906  -8.443  0.00  0.00    +0.234 C 
ATOM     15  O3  UNL     1       2.500  -2.692  -8.559  0.00  0.00    -0.274 OA
ATOM     16  H8  UNL     1       2.447  -5.779  -9.297  0.00  0.00    +0.155 HD
BRANCH  14  17
ATOM     17  C12 UNL     1       1.357  -4.443  -7.349  0.00  0.00    +0.138 C 
BRANCH  17  18
ATOM     18  N2  UNL     1       2.172  -4.750  -6.155  0.00  0.00    -0.320 NA
ATOM     19  H19 UNL     1       2.852  -5.467  -6.435  0.00  0.00    +0.119 HD
ATOM     20  H20 UNL     1       1.585  -5.228  -5.470  0.00  0.00    +0.119 HD
ENDBRANCH  17  18
BRANCH  17  21
ATOM     21  C13 UNL     1       0.270  -3.403  -7.026  0.00  0.00    +0.031 C 
BRANCH  21  22
ATOM     22  C14 UNL     1      -1.169  -3.965  -6.974  0.00  0.00    -0.015 C 
ATOM     23  C15 UNL     1      -1.429  -4.883  -5.779  0.00  0.00    +0.007 C 
ATOM     24  C16 UNL     1      -2.178  -2.811  -6.948  0.00  0.00    +0.007 C 
ENDBRANCH  21  22
ENDBRANCH  17  21
ENDBRANCH  14  17
ENDBRANCH  11  13
TORSDOF 5
ENDMDL
MODEL 3
REMARK VINA RESULT:      -7.7      1.986      2.671
REMARK  Name = Leu-AMC_min.pdb
REMARK  8 active torsions:
REMARK  status: ('A' for Active; 'I' for Inactive)
REMARK    1  A    between atoms: C1_1  and  C2_2
REMARK    2  A    between atoms: C9_11  and  N1_13
REMARK    3  A    between atoms: C11_14  and  C12_16
REMARK    4  A    between atoms: C12_16  and  C13_17
REMARK    5  A    between atoms: C12_16  and  N2_21
REMARK    6  A    between atoms: C13_17  and  C14_18
REMARK    7  A    between atoms: C14_18  and  C15_19
REMARK    8  A    between atoms: C14_18  and  C16_20
REMARK                            x       y       z     vdW  Elec       q    Type
REMARK                         _______ _______ _______ _____ _____    ______ ____
ROOT
ATOM      1  C1  UNL     1       5.325  -5.577 -15.059  0.00  0.00    +0.045 C 
ATOM      2  C2  UNL     1       3.961  -5.945 -14.557  0.00  0.00    -0.033 A 
ATOM      3  C3  UNL     1       3.142  -6.716 -15.286  0.00  0.00    +0.096 A 
ATOM      4  C4  UNL     1       1.794  -7.114 -14.846  0.00  0.00    +0.337 A 
ATOM      5  O1  UNL     1       1.079  -7.800 -15.564  0.00  0.00    -0.245 OA
ATOM      6  O2  UNL     1       1.394  -6.674 -13.597  0.00  0.00    -0.422 OA
ATOM      7  C5  UNL     1       2.233  -5.867 -12.805  0.00  0.00    +0.141 A 
ATOM      8  C6  UNL     1       3.495  -5.471 -13.245  0.00  0.00    +0.021 A 
ATOM      9  C7  UNL     1       4.239  -4.639 -12.398  0.00  0.00    +0.013 A 
ATOM     10  C8  UNL     1       3.724  -4.223 -11.156  0.00  0.00    +0.024 A 
ATOM     11  C9  UNL     1       2.475  -4.672 -10.718  0.00  0.00    +0.037 A 
ATOM     12  C10 UNL     1       1.722  -5.487 -11.564  0.00  0.00    +0.070 A 
ENDROOT
BRANCH  11  13
ATOM     13  N1  UNL     1       1.998  -4.268  -9.452  0.00  0.00    -0.284 N 
ATOM     14  C11 UNL     1       2.094  -5.046  -8.308  0.00  0.00    +0.234 C 
ATOM     15  O3  UNL     1       2.765  -6.077  -8.214  0.00  0.00    -0.274 OA
ATOM     16  H8  UNL     1       1.720  -3.300  -9.343  0.00  0.00    +0.155 HD
BRANCH  14  17
ATOM     17  C12 UNL     1       1.273  -4.540  -7.100  0.00  0.00    +0.138 C 
BRANCH  17  18
ATOM     18  N2  UNL     1       1.295  -3.062  -7.128  0.00  0.00    -0.320 NA
ATOM     19  H19 UNL     1       1.801  -2.788  -7.978  0.00  0.00    +0.119 HD
ATOM     20  H20 UNL     1       1.893  -2.727  -6.371  0.00  0.00    +0.119 HD
ENDBRANCH  17  18
BRANCH  17  21
ATOM     21  C13 UNL     1      -0.169  -5.073  -7.171  0.00  0.00    +0.031 C 
BRANCH  21  22
ATOM     22  C14 UNL     1      -1.135  -4.474  -6.123  0.00  0.00    -0.015 C 
ATOM     23  C15 UNL     1      -2.285  -3.672  -6.733  0.00  0.00    +0.007 C 
ATOM     24  C16 UNL     1      -1.713  -5.591  -5.247  0.00  0.00    +0.007 C 
ENDBRANCH  21  22
ENDBRANCH  17  21
ENDBRANCH  14  17
ENDBRANCH  11  13
TORSDOF 5
ENDMDL
MODEL 4
REMARK VINA RESULT:      -7.5      1.939      2.275
REMARK  Name = Leu-AMC_min.pdb
REMARK  8 active torsions:
REMARK  status: ('A' for Active; 'I' for Inactive)
REMARK    1  A    between atoms: C1_1  and  C2_2
REMARK    2  A    between atoms: C9_11  and  N1_13
REMARK    3  A    between atoms: C11_14  and  C12_16
REMARK    4  A    between atoms: C12_16  and  C13_17
REMARK    5  A    between atoms: C12_16  and  N2_21
REMARK    6  A    between atoms: C13_17  and  C14_18
REMARK    7  A    between atoms: C14_18  and  C15_19
REMARK    8  A    between atoms: C14_18  and  C16_20
REMARK                            x       y       z     vdW  Elec       q    Type
REMARK                         _______ _______ _______ _____ _____    ______ ____
ROOT
ATOM      1  C1  UNL     1       5.964  -4.177 -14.299  0.00  0.00    +0.045 C 
ATOM      2  C2  UNL     1       6.220  -4.564 -12.873  0.00  0.00    -0.033 A 
ATOM      3  C3  UNL     1       7.437  -4.955 -12.471  0.00  0.00    +0.096 A 
ATOM      4  C4  UNL     1       7.750  -5.344 -11.085  0.00  0.00    +0.337 A 
ATOM      5  O1  UNL     1       8.875  -5.718 -10.779  0.00  0.00    -0.245 OA
ATOM      6  O2  UNL     1       6.716  -5.263 -10.170  0.00  0.00    -0.422 OA
ATOM      7  C5  UNL     1       5.427  -4.850 -10.559  0.00  0.00    +0.141 A 
ATOM      8  C6  UNL     1       5.136  -4.514 -11.881  0.00  0.00    +0.021 A 
ATOM      9  C7  UNL     1       3.815  -4.150 -12.173  0.00  0.00    +0.013 A 
ATOM     10  C8  UNL     1       2.829  -4.130 -11.169  0.00  0.00    +0.024 A 
ATOM     11  C9  UNL     1       3.158  -4.426  -9.844  0.00  0.00    +0.037 A 
ATOM     12  C10 UNL     1       4.468  -4.805  -9.547  0.00  0.00    +0.070 A 
ENDROOT
BRANCH  11  13
ATOM     13  N1  UNL     1       2.157  -4.363  -8.849  0.00  0.00    -0.284 N 
ATOM     14  C11 UNL     1       1.937  -3.253  -8.047  0.00  0.00    +0.234 C 
ATOM     15  O3  UNL     1       2.444  -2.143  -8.229  0.00  0.00    -0.274 OA
ATOM     16  H8  UNL     1       1.465  -5.101  -8.834  0.00  0.00    +0.155 HD
BRANCH  14  17
ATOM     17  C12 UNL     1       0.986  -3.487  -6.850  0.00  0.00    +0.138 C 
BRANCH  17  18
ATOM     18  N2  UNL     1       0.602  -2.164  -6.315  0.00  0.00    -0.320 NA
ATOM     19  H19 UNL     1       1.266  -1.483  -6.701  0.00  0.00    +0.119 HD
ATOM     20  H20 UNL     1       0.793  -2.147  -5.312  0.00  0.00    +0.119 HD
ENDBRANCH  17  18
BRANCH  17  21
ATOM     21  C13 UNL     1      -0.252  -4.285  -7.297  0.00  0.00    +0.031 C 
BRANCH  21  22
ATOM     22  C14 UNL     1      -1.487  -4.130  -6.381  0.00  0.00    -0.015 C 
ATOM     23  C15 UNL     1      -2.762  -3.735  -7.129  0.00  0.00    +0.007 C 
ATOM     24  C16 UNL     1      -1.739  -5.436  -5.619  0.00  0.00    +0.007 C 
ENDBRANCH  21  22
ENDBRANCH  17  21
ENDBRANCH  14  17
ENDBRANCH  11  13
TORSDOF 5
ENDMDL
MODEL 5
REMARK VINA RESULT:      -7.0      4.431      8.952
REMARK  Name = Leu-AMC_min.pdb
REMARK  8 active torsions:
REMARK  status: ('A' for Active; 'I' for Inactive)
REMARK    1  A    between atoms: C1_1  and  C2_2
REMARK    2  A    between atoms: C9_11  and  N1_13
REMARK    3  A    between atoms: C11_14  and  C12_16
REMARK    4  A    between atoms: C12_16  and  C13_17
REMARK    5  A    between atoms: C12_16  and  N2_21
REMARK    6  A    between atoms: C13_17  and  C14_18
REMARK    7  A    between atoms: C14_18  and  C15_19
REMARK    8  A    between atoms: C14_18  and  C16_20
REMARK                            x       y       z     vdW  Elec       q    Type
REMARK                         _______ _______ _______ _____ _____    ______ ____
ROOT
ATOM      1  C1  UNL     1       1.796  -6.515 -13.266  0.00  0.00    +0.045 C 
ATOM      2  C2  UNL     1       2.679  -5.487 -12.624  0.00  0.00    -0.033 A 
ATOM      3  C3  UNL     1       2.335  -4.905 -11.467  0.00  0.00    +0.096 A 
ATOM      4  C4  UNL     1       3.161  -3.893 -10.788  0.00  0.00    +0.337 A 
ATOM      5  O1  UNL     1       2.785  -3.376  -9.743  0.00  0.00    -0.245 OA
ATOM      6  O2  UNL     1       4.364  -3.568 -11.389  0.00  0.00    -0.422 OA
ATOM      7  C5  UNL     1       4.757  -4.166 -12.602  0.00  0.00    +0.141 A 
ATOM      8  C6  UNL     1       3.952  -5.100 -13.252  0.00  0.00    +0.021 A 
ATOM      9  C7  UNL     1       4.416  -5.610 -14.471  0.00  0.00    +0.013 A 
ATOM     10  C8  UNL     1       5.645  -5.189 -15.012  0.00  0.00    +0.024 A 
ATOM     11  C9  UNL     1       6.455  -4.286 -14.318  0.00  0.00    +0.037 A 
ATOM     12  C10 UNL     1       5.992  -3.761 -13.110  0.00  0.00    +0.070 A 
ENDROOT
BRANCH  11  13
ATOM     13  N1  UNL     1       7.700  -3.907 -14.866  0.00  0.00    -0.284 N 
ATOM     14  C11 UNL     1       7.851  -2.913 -15.822  0.00  0.00    +0.234 C 
ATOM     15  O3  UNL     1       6.965  -2.124 -16.161  0.00  0.00    -0.274 OA
ATOM     16  H8  UNL     1       8.537  -4.264 -14.421  0.00  0.00    +0.155 HD
BRANCH  14  17
ATOM     17  C12 UNL     1       9.248  -2.845 -16.482  0.00  0.00    +0.138 C 
BRANCH  17  18
ATOM     18  N2  UNL     1       9.075  -3.096 -17.928  0.00  0.00    -0.320 NA
ATOM     19  H19 UNL     1       8.725  -2.223 -18.342  0.00  0.00    +0.119 HD
ATOM     20  H20 UNL     1       8.303  -3.751 -18.059  0.00  0.00    +0.119 HD
ENDBRANCH  17  18
BRANCH  17  21
ATOM     21  C13 UNL     1       9.892  -1.470 -16.232  0.00  0.00    +0.031 C 
BRANCH  21  22
ATOM     22  C14 UNL     1       9.350  -0.715 -14.996  0.00  0.00    -0.015 C 
ATOM     23  C15 UNL     1       9.965  -1.177 -13.674  0.00  0.00    +0.007 C 
ATOM     24  C16 UNL     1       9.587   0.790 -15.160  0.00  0.00    +0.007 C 
ENDBRANCH  21  22
ENDBRANCH  17  21
ENDBRANCH  14  17
ENDBRANCH  11  13
TORSDOF 5
ENDMDL
MODEL 6
REMARK VINA RESULT:      -6.9      2.088      2.966
REMARK  Name = Leu-AMC_min.pdb
REMARK  8 active torsions:
REMARK  status: ('A' for Active; 'I' for Inactive)
REMARK    1  A    between atoms: C1_1  and  C2_2
REMARK    2  A    between atoms: C9_11  and  N1_13
REMARK    3  A    between atoms: C11_14  and  C12_16
REMARK    4  A    between atoms: C12_16  and  C13_17
REMARK    5  A    between atoms: C12_16  and  N2_21
REMARK    6  A    between atoms: C13_17  and  C14_18
REMARK    7  A    between atoms: C14_18  and  C15_19
REMARK    8  A    between atoms: C14_18  and  C16_20
REMARK                            x       y       z     vdW  Elec       q    Type
REMARK                         _______ _______ _______ _____ _____    ______ ____
ROOT
ATOM      1  C1  UNL     1       9.364  -3.967 -11.296  0.00  0.00    +0.045 C 
ATOM      2  C2  UNL     1       7.990  -3.978 -11.896  0.00  0.00    -0.033 A 
ATOM      3  C3  UNL     1       7.806  -3.770 -13.207  0.00  0.00    +0.096 A 
ATOM      4  C4  UNL     1       6.483  -3.772 -13.854  0.00  0.00    +0.337 A 
ATOM      5  O1  UNL     1       6.373  -3.551 -15.054  0.00  0.00    -0.245 OA
ATOM      6  O2  UNL     1       5.396  -4.032 -13.041  0.00  0.00    -0.422 OA
ATOM      7  C5  UNL     1       5.555  -4.261 -11.660  0.00  0.00    +0.141 A 
ATOM      8  C6  UNL     1       6.810  -4.226 -11.054  0.00  0.00    +0.021 A 
ATOM      9  C7  UNL     1       6.859  -4.431  -9.669  0.00  0.00    +0.013 A 
ATOM     10  C8  UNL     1       5.684  -4.659  -8.928  0.00  0.00    +0.024 A 
ATOM     11  C9  UNL     1       4.444  -4.735  -9.567  0.00  0.00    +0.037 A 
ATOM     12  C10 UNL     1       4.385  -4.516 -10.944  0.00  0.00    +0.070 A 
ENDROOT
BRANCH  11  13
ATOM     13  N1  UNL     1       3.285  -5.001  -8.805  0.00  0.00    -0.284 N 
ATOM     14  C11 UNL     1       2.441  -4.014  -8.316  0.00  0.00    +0.234 C 
ATOM     15  O3  UNL     1       2.488  -2.825  -8.642  0.00  0.00    -0.274 OA
ATOM     16  H8  UNL     1       2.968  -5.961  -8.752  0.00  0.00    +0.155 HD
BRANCH  14  17
ATOM     17  C12 UNL     1       1.395  -4.498  -7.286  0.00  0.00    +0.138 C 
BRANCH  17  18
ATOM     18  N2  UNL     1       2.106  -4.782  -6.022  0.00  0.00    -0.320 NA
ATOM     19  H19 UNL     1       1.412  -4.716  -5.268  0.00  0.00    +0.119 HD
ATOM     20  H20 UNL     1       2.749  -4.014  -5.826  0.00  0.00    +0.119 HD
ENDBRANCH  17  18
BRANCH  17  21
ATOM     21  C13 UNL     1       0.309  -3.427  -7.081  0.00  0.00    +0.031 C 
BRANCH  21  22
ATOM     22  C14 UNL     1      -1.137  -3.972  -7.032  0.00  0.00    -0.015 C 
ATOM     23  C15 UNL     1      -1.405  -4.901  -5.847  0.00  0.00    +0.007 C 
ATOM     24  C16 UNL     1      -2.132  -2.807  -6.990  0.00  0.00    +0.007 C 
ENDBRANCH  21  22
ENDBRANCH  17  21
ENDBRANCH  14  17
ENDBRANCH  11  13
TORSDOF 5
ENDMDL
MODEL 7
REMARK VINA RESULT:      -6.9      4.357      9.136
REMARK  Name = Leu-AMC_min.pdb
REMARK  8 active torsions:
REMARK  status: ('A' for Active; 'I' for Inactive)
REMARK    1  A    between atoms: C1_1  and  C2_2
REMARK    2  A    between atoms: C9_11  and  N1_13
REMARK    3  A    between atoms: C11_14  and  C12_16
REMARK    4  A    between atoms: C12_16  and  C13_17
REMARK    5  A    between atoms: C12_16  and  N2_21
REMARK    6  A    between atoms: C13_17  and  C14_18
REMARK    7  A    between atoms: C14_18  and  C15_19
REMARK    8  A    between atoms: C14_18  and  C16_20
REMARK                            x       y       z     vdW  Elec       q    Type
REMARK                         _______ _______ _______ _____ _____    ______ ____
ROOT
ATOM      1  C1  UNL     1       2.656  -4.516  -9.690  0.00  0.00    +0.045 C 
ATOM      2  C2  UNL     1       4.140  -4.638  -9.511  0.00  0.00    -0.033 A 
ATOM      3  C3  UNL     1       4.667  -4.981  -8.328  0.00  0.00    +0.096 A 
ATOM      4  C4  UNL     1       6.114  -5.120  -8.092  0.00  0.00    +0.337 A 
ATOM      5  O1  UNL     1       6.542  -5.412  -6.982  0.00  0.00    -0.245 OA
ATOM      6  O2  UNL     1       6.943  -4.906  -9.178  0.00  0.00    -0.422 OA
ATOM      7  C5  UNL     1       6.420  -4.550 -10.436  0.00  0.00    +0.141 A 
ATOM      8  C6  UNL     1       5.050  -4.391 -10.640  0.00  0.00    +0.021 A 
ATOM      9  C7  UNL     1       4.633  -4.001 -11.919  0.00  0.00    +0.013 A 
ATOM     10  C8  UNL     1       5.565  -3.778 -12.949  0.00  0.00    +0.024 A 
ATOM     11  C9  UNL     1       6.929  -3.990 -12.731  0.00  0.00    +0.037 A 
ATOM     12  C10 UNL     1       7.354  -4.363 -11.455  0.00  0.00    +0.070 A 
ENDROOT
BRANCH  11  13
ATOM     13  N1  UNL     1       7.840  -3.794 -13.793  0.00  0.00    -0.284 N 
ATOM     14  C11 UNL     1       8.620  -2.656 -13.938  0.00  0.00    +0.234 C 
ATOM     15  O3  UNL     1       8.755  -1.782 -13.078  0.00  0.00    -0.274 OA
ATOM     16  H8  UNL     1       8.052  -4.590 -14.382  0.00  0.00    +0.155 HD
BRANCH  14  17
ATOM     17  C12 UNL     1       9.339  -2.524 -15.301  0.00  0.00    +0.138 C 
BRANCH  17  18
ATOM     18  N2  UNL     1       9.854  -3.860 -15.670  0.00  0.00    -0.320 NA
ATOM     19  H19 UNL     1      10.087  -4.341 -14.792  0.00  0.00    +0.119 HD
ATOM     20  H20 UNL     1      10.758  -3.748 -16.131  0.00  0.00    +0.119 HD
ENDBRANCH  17  18
BRANCH  17  21
ATOM     21  C13 UNL     1       8.367  -1.992 -16.370  0.00  0.00    +0.031 C 
BRANCH  21  22
ATOM     22  C14 UNL     1       8.884  -0.771 -17.165  0.00  0.00    -0.015 C 
ATOM     23  C15 UNL     1       7.864  -0.204 -18.154  0.00  0.00    +0.007 C 
ATOM     24  C16 UNL     1       9.312   0.338 -16.197  0.00  0.00    +0.007 C 
ENDBRANCH  21  22
ENDBRANCH  17  21
ENDBRANCH  14  17
ENDBRANCH  11  13
TORSDOF 5
ENDMDL
MODEL 8
REMARK VINA RESULT:      -6.8      2.324      3.798
REMARK  Name = Leu-AMC_min.pdb
REMARK  8 active torsions:
REMARK  status: ('A' for Active; 'I' for Inactive)
REMARK    1  A    between atoms: C1_1  and  C2_2
REMARK    2  A    between atoms: C9_11  and  N1_13
REMARK    3  A    between atoms: C11_14  and  C12_16
REMARK    4  A    between atoms: C12_16  and  C13_17
REMARK    5  A    between atoms: C12_16  and  N2_21
REMARK    6  A    between atoms: C13_17  and  C14_18
REMARK    7  A    between atoms: C14_18  and  C15_19
REMARK    8  A    between atoms: C14_18  and  C16_20
REMARK                            x       y       z     vdW  Elec       q    Type
REMARK                         _______ _______ _______ _____ _____    ______ ____
ROOT
ATOM      1  C1  UNL     1       6.969  -3.918 -17.279  0.00  0.00    +0.045 C 
ATOM      2  C2  UNL     1       7.438  -3.422 -15.944  0.00  0.00    -0.033 A 
ATOM      3  C3  UNL     1       8.484  -2.590 -15.844  0.00  0.00    +0.096 A 
ATOM      4  C4  UNL     1       8.989  -2.067 -14.563  0.00  0.00    +0.337 A 
ATOM      5  O1  UNL     1       9.965  -1.328 -14.530  0.00  0.00    -0.245 OA
ATOM      6  O2  UNL     1       8.307  -2.454 -13.424  0.00  0.00    -0.422 OA
ATOM      7  C5  UNL     1       7.201  -3.322 -13.495  0.00  0.00    +0.141 A 
ATOM      8  C6  UNL     1       6.752  -3.835 -14.711  0.00  0.00    +0.021 A 
ATOM      9  C7  UNL     1       5.666  -4.720 -14.672  0.00  0.00    +0.013 A 
ATOM     10  C8  UNL     1       5.061  -5.072 -13.451  0.00  0.00    +0.024 A 
ATOM     11  C9  UNL     1       5.502  -4.507 -12.251  0.00  0.00    +0.037 A 
ATOM     12  C10 UNL     1       6.593  -3.638 -12.280  0.00  0.00    +0.070 A 
ENDROOT
BRANCH  11  13
ATOM     13  N1  UNL     1       4.854  -4.851 -11.043  0.00  0.00    -0.284 N 
ATOM     14  C11 UNL     1       3.814  -4.118 -10.491  0.00  0.00    +0.234 C 
ATOM     15  O3  UNL     1       3.212  -3.209 -11.068  0.00  0.00    -0.274 OA
ATOM     16  H8  UNL     1       5.049  -5.763 -10.650  0.00  0.00    +0.155 HD
BRANCH  14  17
ATOM     17  C12 UNL     1       3.436  -4.505  -9.043  0.00  0.00    +0.138 C 
BRANCH  17  18
ATOM     18  N2  UNL     1       4.639  -4.333  -8.202  0.00  0.00    -0.320 NA
ATOM     19  H19 UNL     1       4.457  -4.826  -7.319  0.00  0.00    +0.119 HD
ATOM     20  H20 UNL     1       4.708  -3.354  -7.922  0.00  0.00    +0.119 HD
ENDBRANCH  17  18
BRANCH  17  21
ATOM     21  C13 UNL     1       2.277  -3.627  -8.538  0.00  0.00    +0.031 C 
BRANCH  21  22
ATOM     22  C14 UNL     1       1.414  -4.269  -7.427  0.00  0.00    -0.015 C 
ATOM     23  C15 UNL     1       0.182  -3.443  -7.052  0.00  0.00    +0.007 C 
ATOM     24  C16 UNL     1       0.965  -5.669  -7.859  0.00  0.00    +0.007 C 
ENDBRANCH  21  22
ENDBRANCH  17  21
ENDBRANCH  14  17
ENDBRANCH  11  13
TORSDOF 5
ENDMDL
MODEL 9
REMARK VINA RESULT:      -6.7      2.713      4.097
REMARK  Name = Leu-AMC_min.pdb
REMARK  8 active torsions:
REMARK  status: ('A' for Active; 'I' for Inactive)
REMARK    1  A    between atoms: C1_1  and  C2_2
REMARK    2  A    between atoms: C9_11  and  N1_13
REMARK    3  A    between atoms: C11_14  and  C12_16
REMARK    4  A    between atoms: C12_16  and  C13_17
REMARK    5  A    between atoms: C12_16  and  N2_21
REMARK    6  A    between atoms: C13_17  and  C14_18
REMARK    7  A    between atoms: C14_18  and  C15_19
REMARK    8  A    between atoms: C14_18  and  C16_20
REMARK                            x       y       z     vdW  Elec       q    Type
REMARK                         _______ _______ _______ _____ _____    ______ ____
ROOT
ATOM      1  C1  UNL     1       7.142  -4.312 -17.374  0.00  0.00    +0.045 C 
ATOM      2  C2  UNL     1       7.511  -3.712 -16.050  0.00  0.00    -0.033 A 
ATOM      3  C3  UNL     1       8.555  -2.880 -15.935  0.00  0.00    +0.096 A 
ATOM      4  C4  UNL     1       8.964  -2.258 -14.664  0.00  0.00    +0.337 A 
ATOM      5  O1  UNL     1       9.942  -1.524 -14.613  0.00  0.00    -0.245 OA
ATOM      6  O2  UNL     1       8.191  -2.549 -13.555  0.00  0.00    -0.422 OA
ATOM      7  C5  UNL     1       7.084  -3.415 -13.643  0.00  0.00    +0.141 A 
ATOM      8  C6  UNL     1       6.725  -4.022 -14.846  0.00  0.00    +0.021 A 
ATOM      9  C7  UNL     1       5.630  -4.895 -14.822  0.00  0.00    +0.013 A 
ATOM     10  C8  UNL     1       4.929  -5.146 -13.628  0.00  0.00    +0.024 A 
ATOM     11  C9  UNL     1       5.280  -4.489 -12.446  0.00  0.00    +0.037 A 
ATOM     12  C10 UNL     1       6.380  -3.630 -12.458  0.00  0.00    +0.070 A 
ENDROOT
BRANCH  11  13
ATOM     13  N1  UNL     1       4.537  -4.731 -11.270  0.00  0.00    -0.284 N 
ATOM     14  C11 UNL     1       3.454  -3.961 -10.870  0.00  0.00    +0.234 C 
ATOM     15  O3  UNL     1       2.900  -3.112 -11.572  0.00  0.00    -0.274 OA
ATOM     16  H8  UNL     1       4.700  -5.604 -10.783  0.00  0.00    +0.155 HD
BRANCH  14  17
ATOM     17  C12 UNL     1       2.959  -4.225  -9.429  0.00  0.00    +0.138 C 
BRANCH  17  18
ATOM     18  N2  UNL     1       2.173  -3.048  -9.001  0.00  0.00    -0.320 NA
ATOM     19  H19 UNL     1       2.413  -2.282  -9.641  0.00  0.00    +0.119 HD
ATOM     20  H20 UNL     1       2.525  -2.728  -8.098  0.00  0.00    +0.119 HD
ENDBRANCH  17  18
BRANCH  17  21
ATOM     21  C13 UNL     1       2.108  -5.506  -9.381  0.00  0.00    +0.031 C 
BRANCH  21  22
ATOM     22  C14 UNL     1       2.193  -6.290  -8.051  0.00  0.00    -0.015 C 
ATOM     23  C15 UNL     1       2.075  -7.806  -8.222  0.00  0.00    +0.007 C 
ATOM     24  C16 UNL     1       3.511  -5.968  -7.338  0.00  0.00    +0.007 C 
ENDBRANCH  21  22
ENDBRANCH  17  21
ENDBRANCH  14  17
ENDBRANCH  11  13
TORSDOF 5
ENDMDL
MODEL 10
REMARK VINA RESULT:      -6.6      3.899      8.726
REMARK  Name = Leu-AMC_min.pdb
REMARK  8 active torsions:
REMARK  status: ('A' for Active; 'I' for Inactive)
REMARK    1  A    between atoms: C1_1  and  C2_2
REMARK    2  A    between atoms: C9_11  and  N1_13
REMARK    3  A    between atoms: C11_14  and  C12_16
REMARK    4  A    between atoms: C12_16  and  C13_17
REMARK    5  A    between atoms: C12_16  and  N2_21
REMARK    6  A    between atoms: C13_17  and  C14_18
REMARK    7  A    between atoms: C14_18  and  C15_19
REMARK    8  A    between atoms: C14_18  and  C16_20
REMARK                            x       y       z     vdW  Elec       q    Type
REMARK                         _______ _______ _______ _____ _____    ______ ____
ROOT
ATOM      1  C1  UNL     1       1.622  -7.066 -11.866  0.00  0.00    +0.045 C 
ATOM      2  C2  UNL     1       2.423  -5.866 -11.458  0.00  0.00    -0.033 A 
ATOM      3  C3  UNL     1       2.203  -5.253 -10.287  0.00  0.00    +0.096 A 
ATOM      4  C4  UNL     1       2.958  -4.074  -9.830  0.00  0.00    +0.337 A 
ATOM      5  O1  UNL     1       2.697  -3.539  -8.760  0.00  0.00    -0.245 OA
ATOM      6  O2  UNL     1       3.959  -3.617 -10.667  0.00  0.00    -0.422 OA
ATOM      7  C5  UNL     1       4.220  -4.242 -11.903  0.00  0.00    +0.141 A 
ATOM      8  C6  UNL     1       3.477  -5.338 -12.338  0.00  0.00    +0.021 A 
ATOM      9  C7  UNL     1       3.791  -5.866 -13.597  0.00  0.00    +0.013 A 
ATOM     10  C8  UNL     1       4.813  -5.304 -14.384  0.00  0.00    +0.024 A 
ATOM     11  C9  UNL     1       5.573  -4.234 -13.905  0.00  0.00    +0.037 A 
ATOM     12  C10 UNL     1       5.256  -3.693 -12.658  0.00  0.00    +0.070 A 
ENDROOT
BRANCH  11  13
ATOM     13  N1  UNL     1       6.617  -3.713 -14.700  0.00  0.00    -0.284 N 
ATOM     14  C11 UNL     1       7.948  -3.698 -14.312  0.00  0.00    +0.234 C 
ATOM     15  O3  UNL     1       8.401  -4.299 -13.334  0.00  0.00    -0.274 OA
ATOM     16  H8  UNL     1       6.404  -3.489 -15.665  0.00  0.00    +0.155 HD
BRANCH  14  17
ATOM     17  C12 UNL     1       8.881  -2.843 -15.201  0.00  0.00    +0.138 C 
BRANCH  17  18
ATOM     18  N2  UNL     1       9.869  -3.750 -15.821  0.00  0.00    -0.320 NA
ATOM     19  H19 UNL     1      10.661  -3.168 -16.119  0.00  0.00    +0.119 HD
ATOM     20  H20 UNL     1       9.486  -4.105 -16.698  0.00  0.00    +0.119 HD
ENDBRANCH  17  18
BRANCH  17  21
ATOM     21  C13 UNL     1       8.065  -2.098 -16.272  0.00  0.00    +0.031 C 
BRANCH  21  22
ATOM     22  C14 UNL     1       8.841  -0.992 -17.025  0.00  0.00    -0.015 C 
ATOM     23  C15 UNL     1       8.004  -0.259 -18.075  0.00  0.00    +0.007 C 
ATOM     24  C16 UNL     1       9.396   0.029 -16.026  0.00  0.00    +0.007 C 
ENDBRANCH  21  22
ENDBRANCH  17  21
ENDBRANCH  14  17
ENDBRANCH  11  13
TORSDOF 5
ENDMDL
MODEL 11
REMARK VINA RESULT:      -6.4      3.482      5.169
REMARK  Name = Leu-AMC_min.pdb
REMARK  8 active torsions:
REMARK  status: ('A' for Active; 'I' for Inactive)
REMARK    1  A    between atoms: C1_1  and  C2_2
REMARK    2  A    between atoms: C9_11  and  N1_13
REMARK    3  A    between atoms: C11_14  and  C12_16
REMARK    4  A    between atoms: C12_16  and  C13_17
REMARK    5  A    between atoms: C12_16  and  N2_21
REMARK    6  A    between atoms: C13_17  and  C14_18
REMARK    7  A    between atoms: C14_18  and  C15_19
REMARK    8  A    between atoms: C14_18  and  C16_20
REMARK                            x       y       z     vdW  Elec       q    Type
REMARK                         _______ _______ _______ _____ _____    ______ ____
ROOT
ATOM      1  C1  UNL     1       7.388  -3.772 -17.593  0.00  0.00    +0.045 C 
ATOM      2  C2  UNL     1       7.933  -3.075 -16.383  0.00  0.00    -0.033 A 
ATOM      3  C3  UNL     1       8.669  -1.961 -16.499  0.00  0.00    +0.096 A 
ATOM      4  C4  UNL     1       9.229  -1.232 -15.349  0.00  0.00    +0.337 A 
ATOM      5  O1  UNL     1       9.915  -0.232 -15.516  0.00  0.00    -0.245 OA
ATOM      6  O2  UNL     1       8.937  -1.735 -14.094  0.00  0.00    -0.422 OA
ATOM      7  C5  UNL     1       8.162  -2.900 -13.937  0.00  0.00    +0.141 A 
ATOM      8  C6  UNL     1       7.664  -3.599 -15.035  0.00  0.00    +0.021 A 
ATOM      9  C7  UNL     1       6.934  -4.767 -14.775  0.00  0.00    +0.013 A 
ATOM     10  C8  UNL     1       6.720  -5.209 -13.456  0.00  0.00    +0.024 A 
ATOM     11  C9  UNL     1       7.191  -4.464 -12.372  0.00  0.00    +0.037 A 
ATOM     12  C10 UNL     1       7.933  -3.309 -12.623  0.00  0.00    +0.070 A 
ENDROOT
BRANCH  11  13
ATOM     13  N1  UNL     1       6.932  -4.912 -11.058  0.00  0.00    -0.284 N 
ATOM     14  C11 UNL     1       5.791  -4.578 -10.341  0.00  0.00    +0.234 C 
ATOM     15  O3  UNL     1       4.798  -4.025 -10.819  0.00  0.00    -0.274 OA
ATOM     16  H8  UNL     1       7.527  -5.641 -10.684  0.00  0.00    +0.155 HD
BRANCH  14  17
ATOM     17  C12 UNL     1       5.832  -4.942  -8.839  0.00  0.00    +0.138 C 
BRANCH  17  18
ATOM     18  N2  UNL     1       6.793  -4.032  -8.181  0.00  0.00    -0.320 NA
ATOM     19  H19 UNL     1       6.526  -3.076  -8.446  0.00  0.00    +0.119 HD
ATOM     20  H20 UNL     1       7.710  -4.155  -8.611  0.00  0.00    +0.119 HD
ENDBRANCH  17  18
BRANCH  17  21
ATOM     21  C13 UNL     1       4.430  -4.811  -8.217  0.00  0.00    +0.031 C 
BRANCH  21  22
ATOM     22  C14 UNL     1       3.794  -6.146  -7.766  0.00  0.00    -0.015 C 
ATOM     23  C15 UNL     1       4.237  -6.599  -6.374  0.00  0.00    +0.007 C 
ATOM     24  C16 UNL     1       2.266  -6.029  -7.791  0.00  0.00    +0.007 C 
ENDBRANCH  21  22
ENDBRANCH  17  21
ENDBRANCH  14  17
ENDBRANCH  11  13
TORSDOF 5
ENDMDL
MODEL 12
REMARK VINA RESULT:      -6.4      4.621      9.103
REMARK  Name = Leu-AMC_min.pdb
REMARK  8 active torsions:
REMARK  status: ('A' for Active; 'I' for Inactive)
REMARK    1  A    between atoms: C1_1  and  C2_2
REMARK    2  A    between atoms: C9_11  and  N1_13
REMARK    3  A    between atoms: C11_14  and  C12_16
REMARK    4  A    between atoms: C12_16  and  C13_17
REMARK    5  A    between atoms: C12_16  and  N2_21
REMARK    6  A    between atoms: C13_17  and  C14_18
REMARK    7  A    between atoms: C14_18  and  C15_19
REMARK    8  A    between atoms: C14_18  and  C16_20
REMARK                            x       y       z     vdW  Elec       q    Type
REMARK                         _______ _______ _______ _____ _____    ______ ____
ROOT
ATOM      1  C1  UNL     1       1.672  -5.826 -11.326  0.00  0.00    +0.045 C 
ATOM      2  C2  UNL     1       2.166  -6.102 -12.715  0.00  0.00    -0.033 A 
ATOM      3  C3  UNL     1       1.388  -6.716 -13.617  0.00  0.00    +0.096 A 
ATOM      4  C4  UNL     1       1.816  -7.011 -14.994  0.00  0.00    +0.337 A 
ATOM      5  O1  UNL     1       1.071  -7.597 -15.769  0.00  0.00    -0.245 OA
ATOM      6  O2  UNL     1       3.086  -6.595 -15.352  0.00  0.00    -0.422 OA
ATOM      7  C5  UNL     1       3.927  -5.943 -14.429  0.00  0.00    +0.141 A 
ATOM      8  C6  UNL     1       3.521  -5.697 -13.118  0.00  0.00    +0.021 A 
ATOM      9  C7  UNL     1       4.444  -5.074 -12.268  0.00  0.00    +0.013 A 
ATOM     10  C8  UNL     1       5.726  -4.718 -12.725  0.00  0.00    +0.024 A 
ATOM     11  C9  UNL     1       6.091  -4.934 -14.057  0.00  0.00    +0.037 A 
ATOM     12  C10 UNL     1       5.183  -5.569 -14.906  0.00  0.00    +0.070 A 
ENDROOT
BRANCH  11  13
ATOM     13  N1  UNL     1       7.371  -4.534 -14.500  0.00  0.00    -0.284 N 
ATOM     14  C11 UNL     1       7.624  -3.329 -15.139  0.00  0.00    +0.234 C 
ATOM     15  O3  UNL     1       6.820  -2.397 -15.224  0.00  0.00    -0.274 OA
ATOM     16  H8  UNL     1       8.166  -5.080 -14.190  0.00  0.00    +0.155 HD
BRANCH  14  17
ATOM     17  C12 UNL     1       9.026  -3.209 -15.780  0.00  0.00    +0.138 C 
BRANCH  17  18
ATOM     18  N2  UNL     1       9.680  -4.531 -15.684  0.00  0.00    -0.320 NA
ATOM     19  H19 UNL     1       9.786  -4.738 -14.684  0.00  0.00    +0.119 HD
ATOM     20  H20 UNL     1      10.641  -4.448 -16.018  0.00  0.00    +0.119 HD
ENDBRANCH  17  18
BRANCH  17  21
ATOM     21  C13 UNL     1       8.908  -2.754 -17.246  0.00  0.00    +0.031 C 
BRANCH  21  22
ATOM     22  C14 UNL     1       9.196  -1.254 -17.484  0.00  0.00    -0.015 C 
ATOM     23  C15 UNL     1       7.987  -0.468 -17.993  0.00  0.00    +0.007 C 
ATOM     24  C16 UNL     1       9.703  -0.608 -16.190  0.00  0.00    +0.007 C 
ENDBRANCH  21  22
ENDBRANCH  17  21
ENDBRANCH  14  17
ENDBRANCH  11  13
TORSDOF 5
ENDMDL
MODEL 13
REMARK VINA RESULT:      -6.2      3.028      4.204
REMARK  Name = Leu-AMC_min.pdb
REMARK  8 active torsions:
REMARK  status: ('A' for Active; 'I' for Inactive)
REMARK    1  A    between atoms: C1_1  and  C2_2
REMARK    2  A    between atoms: C9_11  and  N1_13
REMARK    3  A    between atoms: C11_14  and  C12_16
REMARK    4  A    between atoms: C12_16  and  C13_17
REMARK    5  A    between atoms: C12_16  and  N2_21
REMARK    6  A    between atoms: C13_17  and  C14_18
REMARK    7  A    between atoms: C14_18  and  C15_19
REMARK    8  A    between atoms: C14_18  and  C16_20
REMARK                            x       y       z     vdW  Elec       q    Type
REMARK                         _______ _______ _______ _____ _____    ______ ____
ROOT
ATOM      1  C1  UNL     1       1.705  -7.531 -16.048  0.00  0.00    +0.045 C 
ATOM      2  C2  UNL     1       1.185  -7.876 -14.684  0.00  0.00    -0.033 A 
ATOM      3  C3  UNL     1       0.416  -8.956 -14.489  0.00  0.00    +0.096 A 
ATOM      4  C4  UNL     1      -0.120  -9.347 -13.175  0.00  0.00    +0.337 A 
ATOM      5  O1  UNL     1      -0.839 -10.332 -13.060  0.00  0.00    -0.245 OA
ATOM      6  O2  UNL     1       0.230  -8.550 -12.100  0.00  0.00    -0.422 OA
ATOM      7  C5  UNL     1       1.041  -7.411 -12.270  0.00  0.00    +0.141 A 
ATOM      8  C6  UNL     1       1.518  -7.034 -13.524  0.00  0.00    +0.021 A 
ATOM      9  C7  UNL     1       2.287  -5.865 -13.593  0.00  0.00    +0.013 A 
ATOM     10  C8  UNL     1       2.561  -5.109 -12.439  0.00  0.00    +0.024 A 
ATOM     11  C9  UNL     1       2.110  -5.534 -11.186  0.00  0.00    +0.037 A 
ATOM     12  C10 UNL     1       1.329  -6.689 -11.112  0.00  0.00    +0.070 A 
ENDROOT
BRANCH  11  13
ATOM     13  N1  UNL     1       2.429  -4.775 -10.039  0.00  0.00    -0.284 N 
ATOM     14  C11 UNL     1       2.078  -5.144  -8.748  0.00  0.00    +0.234 C 
ATOM     15  O3  UNL     1       1.627  -6.248  -8.432  0.00  0.00    -0.274 OA
ATOM     16  H8  UNL     1       3.085  -4.011 -10.149  0.00  0.00    +0.155 HD
BRANCH  14  17
ATOM     17  C12 UNL     1       2.280  -4.049  -7.676  0.00  0.00    +0.138 C 
BRANCH  17  18
ATOM     18  N2  UNL     1       2.162  -2.737  -8.345  0.00  0.00    -0.320 NA
ATOM     19  H19 UNL     1       3.071  -2.269  -8.244  0.00  0.00    +0.119 HD
ATOM     20  H20 UNL     1       1.526  -2.148  -7.806  0.00  0.00    +0.119 HD
ENDBRANCH  17  18
BRANCH  17  21
ATOM     21  C13 UNL     1       1.233  -4.196  -6.557  0.00  0.00    +0.031 C 
BRANCH  21  22
ATOM     22  C14 UNL     1      -0.231  -4.284  -7.046  0.00  0.00    -0.015 C 
ATOM     23  C15 UNL     1      -1.086  -5.275  -6.255  0.00  0.00    +0.007 C 
ATOM     24  C16 UNL     1      -0.885  -2.899  -6.985  0.00  0.00    +0.007 C 
ENDBRANCH  21  22
ENDBRANCH  17  21
ENDBRANCH  14  17
ENDBRANCH  11  13
TORSDOF 5
ENDMDL
MODEL 14
REMARK VINA RESULT:      -6.2      2.154      2.925
REMARK  Name = Leu-AMC_min.pdb
REMARK  8 active torsions:
REMARK  status: ('A' for Active; 'I' for Inactive)
REMARK    1  A    between atoms: C1_1  and  C2_2
REMARK    2  A    between atoms: C9_11  and  N1_13
REMARK    3  A    between atoms: C11_14  and  C12_16
REMARK    4  A    between atoms: C12_16  and  C13_17
REMARK    5  A    between atoms: C12_16  and  N2_21
REMARK    6  A    between atoms: C13_17  and  C14_18
REMARK    7  A    between atoms: C14_18  and  C15_19
REMARK    8  A    between atoms: C14_18  and  C16_20
REMARK                            x       y       z     vdW  Elec       q    Type
REMARK                         _______ _______ _______ _____ _____    ______ ____
ROOT
ATOM      1  C1  UNL     1       5.761  -6.580 -16.009  0.00  0.00    +0.045 C 
ATOM      2  C2  UNL     1       5.965  -5.368 -15.150  0.00  0.00    -0.033 A 
ATOM      3  C3  UNL     1       6.849  -4.420 -15.491  0.00  0.00    +0.096 A 
ATOM      4  C4  UNL     1       7.092  -3.208 -14.691  0.00  0.00    +0.337 A 
ATOM      5  O1  UNL     1       7.930  -2.386 -15.038  0.00  0.00    -0.245 OA
ATOM      6  O2  UNL     1       6.330  -3.058 -13.546  0.00  0.00    -0.422 OA
ATOM      7  C5  UNL     1       5.389  -4.033 -13.162  0.00  0.00    +0.141 A 
ATOM      8  C6  UNL     1       5.191  -5.191 -13.912  0.00  0.00    +0.021 A 
ATOM      9  C7  UNL     1       4.257  -6.117 -13.428  0.00  0.00    +0.013 A 
ATOM     10  C8  UNL     1       3.556  -5.880 -12.231  0.00  0.00    +0.024 A 
ATOM     11  C9  UNL     1       3.740  -4.689 -11.523  0.00  0.00    +0.037 A 
ATOM     12  C10 UNL     1       4.680  -3.769 -11.991  0.00  0.00    +0.070 A 
ENDROOT
BRANCH  11  13
ATOM     13  N1  UNL     1       2.996  -4.460 -10.344  0.00  0.00    -0.284 N 
ATOM     14  C11 UNL     1       3.561  -4.389  -9.079  0.00  0.00    +0.234 C 
ATOM     15  O3  UNL     1       4.772  -4.323  -8.853  0.00  0.00    -0.274 OA
ATOM     16  H8  UNL     1       2.031  -4.173 -10.447  0.00  0.00    +0.155 HD
BRANCH  14  17
ATOM     17  C12 UNL     1       2.551  -4.407  -7.909  0.00  0.00    +0.138 C 
BRANCH  17  18
ATOM     18  N2  UNL     1       1.503  -3.406  -8.203  0.00  0.00    -0.320 NA
ATOM     19  H19 UNL     1       0.876  -3.828  -8.898  0.00  0.00    +0.119 HD
ATOM     20  H20 UNL     1       1.926  -2.624  -8.703  0.00  0.00    +0.119 HD
ENDBRANCH  17  18
BRANCH  17  21
ATOM     21  C13 UNL     1       1.944  -5.812  -7.746  0.00  0.00    +0.031 C 
BRANCH  21  22
ATOM     22  C14 UNL     1       2.946  -6.975  -7.928  0.00  0.00    -0.015 C 
ATOM     23  C15 UNL     1       3.871  -7.184  -6.728  0.00  0.00    +0.007 C 
ATOM     24  C16 UNL     1       2.188  -8.278  -8.208  0.00  0.00    +0.007 C 
ENDBRANCH  21  22
ENDBRANCH  17  21
ENDBRANCH  14  17
ENDBRANCH  11  13
TORSDOF 5
ENDMDL
MODEL 15
REMARK VINA RESULT:      -6.1      4.896      6.049
REMARK  Name = Leu-AMC_min.pdb
REMARK  8 active torsions:
REMARK  status: ('A' for Active; 'I' for Inactive)
REMARK    1  A    between atoms: C1_1  and  C2_2
REMARK    2  A    between atoms: C9_11  and  N1_13
REMARK    3  A    between atoms: C11_14  and  C12_16
REMARK    4  A    between atoms: C12_16  and  C13_17
REMARK    5  A    between atoms: C12_16  and  N2_21
REMARK    6  A    between atoms: C13_17  and  C14_18
REMARK    7  A    between atoms: C14_18  and  C15_19
REMARK    8  A    between atoms: C14_18  and  C16_20
REMARK                            x       y       z     vdW  Elec       q    Type
REMARK                         _______ _______ _______ _____ _____    ______ ____
ROOT
ATOM      1  C1  UNL     1       8.720  -8.468  -4.332  0.00  0.00    +0.045 C 
ATOM      2  C2  UNL     1       8.319  -8.398  -5.775  0.00  0.00    -0.033 A 
ATOM      3  C3  UNL     1       9.127  -8.856  -6.740  0.00  0.00    +0.096 A 
ATOM      4  C4  UNL     1       8.788  -8.817  -8.173  0.00  0.00    +0.337 A 
ATOM      5  O1  UNL     1       9.576  -9.227  -9.015  0.00  0.00    -0.245 OA
ATOM      6  O2  UNL     1       7.548  -8.298  -8.502  0.00  0.00    -0.422 OA
ATOM      7  C5  UNL     1       6.673  -7.814  -7.511  0.00  0.00    +0.141 A 
ATOM      8  C6  UNL     1       7.019  -7.828  -6.161  0.00  0.00    +0.021 A 
ATOM      9  C7  UNL     1       6.094  -7.291  -5.256  0.00  0.00    +0.013 A 
ATOM     10  C8  UNL     1       4.870  -6.759  -5.701  0.00  0.00    +0.024 A 
ATOM     11  C9  UNL     1       4.528  -6.799  -7.056  0.00  0.00    +0.037 A 
ATOM     12  C10 UNL     1       5.451  -7.318  -7.965  0.00  0.00    +0.070 A 
ENDROOT
BRANCH  11  13
ATOM     13  N1  UNL     1       3.277  -6.291  -7.471  0.00  0.00    -0.284 N 
ATOM     14  C11 UNL     1       3.077  -4.984  -7.890  0.00  0.00    +0.234 C 
ATOM     15  O3  UNL     1       3.980  -4.178  -8.131  0.00  0.00    -0.274 OA
ATOM     16  H8  UNL     1       2.528  -6.955  -7.625  0.00  0.00    +0.155 HD
BRANCH  14  17
ATOM     17  C12 UNL     1       1.597  -4.562  -8.038  0.00  0.00    +0.138 C 
BRANCH  17  18
ATOM     18  N2  UNL     1       0.949  -5.510  -8.968  0.00  0.00    -0.320 NA
ATOM     19  H19 UNL     1       0.710  -6.346  -8.421  0.00  0.00    +0.119 HD
ATOM     20  H20 UNL     1       1.646  -5.848  -9.633  0.00  0.00    +0.119 HD
ENDBRANCH  17  18
BRANCH  17  21
ATOM     21  C13 UNL     1       0.899  -4.567  -6.666  0.00  0.00    +0.031 C 
BRANCH  21  22
ATOM     22  C14 UNL     1      -0.642  -4.674  -6.724  0.00  0.00    -0.015 C 
ATOM     23  C15 UNL     1      -1.270  -5.206  -5.434  0.00  0.00    +0.007 C 
ATOM     24  C16 UNL     1      -1.248  -3.304  -7.047  0.00  0.00    +0.007 C 
ENDBRANCH  21  22
ENDBRANCH  17  21
ENDBRANCH  14  17
ENDBRANCH  11  13
TORSDOF 5
ENDMDL
MODEL 16
REMARK VINA RESULT:      -6.1      5.365      7.499
REMARK  Name = Leu-AMC_min.pdb
REMARK  8 active torsions:
REMARK  status: ('A' for Active; 'I' for Inactive)
REMARK    1  A    between atoms: C1_1  and  C2_2
REMARK    2  A    between atoms: C9_11  and  N1_13
REMARK    3  A    between atoms: C11_14  and  C12_16
REMARK    4  A    between atoms: C12_16  and  C13_17
REMARK    5  A    between atoms: C12_16  and  N2_21
REMARK    6  A    between atoms: C13_17  and  C14_18
REMARK    7  A    between atoms: C14_18  and  C15_19
REMARK    8  A    between atoms: C14_18  and  C16_20
REMARK                            x       y       z     vdW  Elec       q    Type
REMARK                         _______ _______ _______ _____ _____    ______ ____
ROOT
ATOM      1  C1  UNL     1       0.855  -3.882  -6.978  0.00  0.00    +0.045 C 
ATOM      2  C2  UNL     1       2.034  -4.131  -7.870  0.00  0.00    -0.033 A 
ATOM      3  C3  UNL     1       2.138  -3.530  -9.063  0.00  0.00    +0.096 A 
ATOM      4  C4  UNL     1       3.272  -3.733  -9.980  0.00  0.00    +0.337 A 
ATOM      5  O1  UNL     1       3.302  -3.176 -11.071  0.00  0.00    -0.245 OA
ATOM      6  O2  UNL     1       4.280  -4.573  -9.544  0.00  0.00    -0.422 OA
ATOM      7  C5  UNL     1       4.205  -5.215  -8.293  0.00  0.00    +0.141 A 
ATOM      8  C6  UNL     1       3.111  -5.040  -7.447  0.00  0.00    +0.021 A 
ATOM      9  C7  UNL     1       3.113  -5.751  -6.239  0.00  0.00    +0.013 A 
ATOM     10  C8  UNL     1       4.179  -6.606  -5.904  0.00  0.00    +0.024 A 
ATOM     11  C9  UNL     1       5.286  -6.728  -6.749  0.00  0.00    +0.037 A 
ATOM     12  C10 UNL     1       5.283  -6.036  -7.961  0.00  0.00    +0.070 A 
ENDROOT
BRANCH  11  13
ATOM     13  N1  UNL     1       6.358  -7.566  -6.372  0.00  0.00    -0.284 N 
ATOM     14  C11 UNL     1       7.345  -7.196  -5.470  0.00  0.00    +0.234 C 
ATOM     15  O3  UNL     1       7.303  -6.190  -4.757  0.00  0.00    -0.274 OA
ATOM     16  H8  UNL     1       6.313  -8.539  -6.649  0.00  0.00    +0.155 HD
BRANCH  14  17
ATOM     17  C12 UNL     1       8.564  -8.144  -5.407  0.00  0.00    +0.138 C 
BRANCH  17  18
ATOM     18  N2  UNL     1       9.122  -8.070  -4.040  0.00  0.00    -0.320 NA
ATOM     19  H19 UNL     1       8.386  -7.680  -3.439  0.00  0.00    +0.119 HD
ATOM     20  H20 UNL     1       9.853  -7.357  -4.021  0.00  0.00    +0.119 HD
ENDBRANCH  17  18
BRANCH  17  21
ATOM     21  C13 UNL     1       8.143  -9.583  -5.755  0.00  0.00    +0.031 C 
BRANCH  21  22
ATOM     22  C14 UNL     1       8.799 -10.159  -7.031  0.00  0.00    -0.015 C 
ATOM     23  C15 UNL     1       7.826 -10.334  -8.198  0.00  0.00    +0.007 C 
ATOM     24  C16 UNL     1       9.956  -9.258  -7.475  0.00  0.00    +0.007 C 
ENDBRANCH  21  22
ENDBRANCH  17  21
ENDBRANCH  14  17
ENDBRANCH  11  13
TORSDOF 5
ENDMDL
MODEL 17
REMARK VINA RESULT:      -6.1      2.879      4.649
REMARK  Name = Leu-AMC_min.pdb
REMARK  8 active torsions:
REMARK  status: ('A' for Active; 'I' for Inactive)
REMARK    1  A    between atoms: C1_1  and  C2_2
REMARK    2  A    between atoms: C9_11  and  N1_13
REMARK    3  A    between atoms: C11_14  and  C12_16
REMARK    4  A    between atoms: C12_16  and  C13_17
REMARK    5  A    between atoms: C12_16  and  N2_21
REMARK    6  A    between atoms: C13_17  and  C14_18
REMARK    7  A    between atoms: C14_18  and  C15_19
REMARK    8  A    between atoms: C14_18  and  C16_20
REMARK                            x       y       z     vdW  Elec       q    Type
REMARK                         _______ _______ _______ _____ _____    ______ ____
ROOT
ATOM      1  C1  UNL     1       9.965  -2.664 -12.101  0.00  0.00    +0.045 C 
ATOM      2  C2  UNL     1       8.918  -2.783 -13.167  0.00  0.00    -0.033 A 
ATOM      3  C3  UNL     1       9.135  -2.318 -14.405  0.00  0.00    +0.096 A 
ATOM      4  C4  UNL     1       8.148  -2.408 -15.494  0.00  0.00    +0.337 A 
ATOM      5  O1  UNL     1       8.391  -1.944 -16.600  0.00  0.00    -0.245 OA
ATOM      6  O2  UNL     1       6.952  -3.037 -15.196  0.00  0.00    -0.422 OA
ATOM      7  C5  UNL     1       6.694  -3.541 -13.906  0.00  0.00    +0.141 A 
ATOM      8  C6  UNL     1       7.625  -3.422 -12.875  0.00  0.00    +0.021 A 
ATOM      9  C7  UNL     1       7.260  -3.924 -11.620  0.00  0.00    +0.013 A 
ATOM     10  C8  UNL     1       6.001  -4.520 -11.416  0.00  0.00    +0.024 A 
ATOM     11  C9  UNL     1       5.105  -4.669 -12.477  0.00  0.00    +0.037 A 
ATOM     12  C10 UNL     1       5.455  -4.157 -13.727  0.00  0.00    +0.070 A 
ENDROOT
BRANCH  11  13
ATOM     13  N1  UNL     1       3.863  -5.304 -12.254  0.00  0.00    -0.284 N 
ATOM     14  C11 UNL     1       2.827  -4.735 -11.527  0.00  0.00    +0.234 C 
ATOM     15  O3  UNL     1       2.790  -3.557 -11.161  0.00  0.00    -0.274 OA
ATOM     16  H8  UNL     1       3.662  -6.142 -12.785  0.00  0.00    +0.155 HD
BRANCH  14  17
ATOM     17  C12 UNL     1       1.671  -5.698 -11.172  0.00  0.00    +0.138 C 
BRANCH  17  18
ATOM     18  N2  UNL     1       1.050  -6.142 -12.438  0.00  0.00    -0.320 NA
ATOM     19  H19 UNL     1       1.744  -5.988 -13.179  0.00  0.00    +0.119 HD
ATOM     20  H20 UNL     1       0.294  -5.500 -12.677  0.00  0.00    +0.119 HD
ENDBRANCH  17  18
BRANCH  17  21
ATOM     21  C13 UNL     1       2.200  -6.896 -10.364  0.00  0.00    +0.031 C 
BRANCH  21  22
ATOM     22  C14 UNL     1       2.277  -6.664  -8.837  0.00  0.00    -0.015 C 
ATOM     23  C15 UNL     1       1.186  -5.736  -8.300  0.00  0.00    +0.007 C 
ATOM     24  C16 UNL     1       2.198  -8.006  -8.101  0.00  0.00    +0.007 C 
ENDBRANCH  21  22
ENDBRANCH  17  21
ENDBRANCH  14  17
ENDBRANCH  11  13
TORSDOF 5
ENDMDL
MODEL 18
REMARK VINA RESULT:      -6.1      4.626      9.047
REMARK  Name = Leu-AMC_min.pdb
REMARK  8 active torsions:
REMARK  status: ('A' for Active; 'I' for Inactive)
REMARK    1  A    between atoms: C1_1  and  C2_2
REMARK    2  A    between atoms: C9_11  and  N1_13
REMARK    3  A    between atoms: C11_14  and  C12_16
REMARK    4  A    between atoms: C12_16  and  C13_17
REMARK    5  A    between atoms: C12_16  and  N2_21
REMARK    6  A    between atoms: C13_17  and  C14_18
REMARK    7  A    between atoms: C14_18  and  C15_19
REMARK    8  A    between atoms: C14_18  and  C16_20
REMARK                            x       y       z     vdW  Elec       q    Type
REMARK                         _______ _______ _______ _____ _____    ______ ____
ROOT
ATOM      1  C1  UNL     1       5.491  -5.840  -8.183  0.00  0.00    +0.045 C 
ATOM      2  C2  UNL     1       5.074  -5.103  -9.420  0.00  0.00    -0.033 A 
ATOM      3  C3  UNL     1       3.810  -4.690  -9.586  0.00  0.00    +0.096 A 
ATOM      4  C4  UNL     1       3.341  -3.960 -10.776  0.00  0.00    +0.337 A 
ATOM      5  O1  UNL     1       2.167  -3.628 -10.885  0.00  0.00    -0.245 OA
ATOM      6  O2  UNL     1       4.288  -3.679 -11.744  0.00  0.00    -0.422 OA
ATOM      7  C5  UNL     1       5.626  -4.094 -11.598  0.00  0.00    +0.141 A 
ATOM      8  C6  UNL     1       6.051  -4.811 -10.480  0.00  0.00    +0.021 A 
ATOM      9  C7  UNL     1       7.394  -5.209 -10.446  0.00  0.00    +0.013 A 
ATOM     10  C8  UNL     1       8.270  -4.896 -11.502  0.00  0.00    +0.024 A 
ATOM     11  C9  UNL     1       7.830  -4.136 -12.589  0.00  0.00    +0.037 A 
ATOM     12  C10 UNL     1       6.489  -3.750 -12.638  0.00  0.00    +0.070 A 
ENDROOT
BRANCH  11  13
ATOM     13  N1  UNL     1       8.739  -3.805 -13.618  0.00  0.00    -0.284 N 
ATOM     14  C11 UNL     1       9.194  -2.517 -13.859  0.00  0.00    +0.234 C 
ATOM     15  O3  UNL     1       9.018  -1.557 -13.104  0.00  0.00    -0.274 OA
ATOM     16  H8  UNL     1       9.204  -4.567 -14.095  0.00  0.00    +0.155 HD
BRANCH  14  17
ATOM     17  C12 UNL     1       9.960  -2.331 -15.189  0.00  0.00    +0.138 C 
BRANCH  17  18
ATOM     18  N2  UNL     1       9.869  -3.600 -15.942  0.00  0.00    -0.320 NA
ATOM     19  H19 UNL     1       9.824  -3.351 -16.938  0.00  0.00    +0.119 HD
ATOM     20  H20 UNL     1       8.960  -4.027 -15.759  0.00  0.00    +0.119 HD
ENDBRANCH  17  18
BRANCH  17  21
ATOM     21  C13 UNL     1       9.361  -1.164 -15.994  0.00  0.00    +0.031 C 
BRANCH  21  22
ATOM     22  C14 UNL     1       8.361  -1.584 -17.096  0.00  0.00    -0.015 C 
ATOM     23  C15 UNL     1       7.050  -2.155 -16.552  0.00  0.00    +0.007 C 
ATOM     24  C16 UNL     1       8.048  -0.387 -18.001  0.00  0.00    +0.007 C 
ENDBRANCH  21  22
ENDBRANCH  17  21
ENDBRANCH  14  17
ENDBRANCH  11  13
TORSDOF 5
ENDMDL
MODEL 19
REMARK VINA RESULT:      -6.1      3.636      5.840
REMARK  Name = Leu-AMC_min.pdb
REMARK  8 active torsions:
REMARK  status: ('A' for Active; 'I' for Inactive)
REMARK    1  A    between atoms: C1_1  and  C2_2
REMARK    2  A    between atoms: C9_11  and  N1_13
REMARK    3  A    between atoms: C11_14  and  C12_16
REMARK    4  A    between atoms: C12_16  and  C13_17
REMARK    5  A    between atoms: C12_16  and  N2_21
REMARK    6  A    between atoms: C13_17  and  C14_18
REMARK    7  A    between atoms: C14_18  and  C15_19
REMARK    8  A    between atoms: C14_18  and  C16_20
REMARK                            x       y       z     vdW  Elec       q    Type
REMARK                         _______ _______ _______ _____ _____    ______ ____
ROOT
ATOM      1  C1  UNL     1       9.957  -0.961 -16.158  0.00  0.00    +0.045 C 
ATOM      2  C2  UNL     1       9.054  -2.157 -16.134  0.00  0.00    -0.033 A 
ATOM      3  C3  UNL     1       8.585  -2.693 -17.269  0.00  0.00    +0.096 A 
ATOM      4  C4  UNL     1       7.698  -3.868 -17.309  0.00  0.00    +0.337 A 
ATOM      5  O1  UNL     1       7.279  -4.299 -18.375  0.00  0.00    -0.245 OA
ATOM      6  O2  UNL     1       7.373  -4.441 -16.093  0.00  0.00    -0.422 OA
ATOM      7  C5  UNL     1       7.854  -3.906 -14.882  0.00  0.00    +0.141 A 
ATOM      8  C6  UNL     1       8.668  -2.775 -14.856  0.00  0.00    +0.021 A 
ATOM      9  C7  UNL     1       9.065  -2.300 -13.599  0.00  0.00    +0.013 A 
ATOM     10  C8  UNL     1       8.652  -2.943 -12.417  0.00  0.00    +0.024 A 
ATOM     11  C9  UNL     1       7.874  -4.102 -12.474  0.00  0.00    +0.037 A 
ATOM     12  C10 UNL     1       7.461  -4.572 -13.721  0.00  0.00    +0.070 A 
ENDROOT
BRANCH  11  13
ATOM     13  N1  UNL     1       7.503  -4.749 -11.274  0.00  0.00    -0.284 N 
ATOM     14  C11 UNL     1       6.285  -4.555 -10.639  0.00  0.00    +0.234 C 
ATOM     15  O3  UNL     1       5.323  -3.960 -11.132  0.00  0.00    -0.274 OA
ATOM     16  H8  UNL     1       8.087  -5.510 -10.952  0.00  0.00    +0.155 HD
BRANCH  14  17
ATOM     17  C12 UNL     1       6.190  -5.139  -9.211  0.00  0.00    +0.138 C 
BRANCH  17  18
ATOM     18  N2  UNL     1       6.610  -4.085  -8.264  0.00  0.00    -0.320 NA
ATOM     19  H19 UNL     1       6.427  -4.444  -7.319  0.00  0.00    +0.119 HD
ATOM     20  H20 UNL     1       5.973  -3.292  -8.350  0.00  0.00    +0.119 HD
ENDBRANCH  17  18
BRANCH  17  21
ATOM     21  C13 UNL     1       4.753  -5.606  -8.917  0.00  0.00    +0.031 C 
BRANCH  21  22
ATOM     22  C14 UNL     1       4.283  -5.381  -7.461  0.00  0.00    -0.015 C 
ATOM     23  C15 UNL     1       2.803  -5.013  -7.343  0.00  0.00    +0.007 C 
ATOM     24  C16 UNL     1       4.556  -6.636  -6.625  0.00  0.00    +0.007 C 
ENDBRANCH  21  22
ENDBRANCH  17  21
ENDBRANCH  14  17
ENDBRANCH  11  13
TORSDOF 5
ENDMDL
