MODEL 1
REMARK VINA RESULT:      -6.8      0.000      0.000
REMARK  Name = LLG_min.pdb
REMARK  14 active torsions:
REMARK  status: ('A' for Active; 'I' for Inactive)
REMARK    1  A    between atoms: N_1  and  CA_2
REMARK    2  A    between atoms: CA_2  and  C_3
REMARK    3  A    between atoms: CA_2  and  CB_5
REMARK    4  A    between atoms: CB_5  and  CG_6
REMARK    5  A    between atoms: CG_6  and  CD1_7
REMARK    6  A    between atoms: CG_6  and  CD2_8
REMARK    7  A    between atoms: N_9  and  CA_10
REMARK    8  A    between atoms: CA_10  and  C_11
REMARK    9  A    between atoms: CA_10  and  CB_13
REMARK   10  A    between atoms: CB_13  and  CG_14
REMARK   11  A    between atoms: CG_14  and  CD1_15
REMARK   12  A    between atoms: CG_14  and  CD2_16
REMARK   13  A    between atoms: N_17  and  CA_18
REMARK   14  A    between atoms: CA_18  and  C_19
REMARK                            x       y       z     vdW  Elec       q    Type
REMARK                         _______ _______ _______ _____ _____    ______ ____
ROOT
ATOM      1  C   LEU A   1       1.802  -4.036  -8.350  0.00  0.00    +0.199 C 
ATOM      2  O   LEU A   1       2.451  -3.076  -8.747  0.00  0.00    -0.278 OA
ATOM      3  N   LEU A   2       1.724  -5.248  -9.033  0.00  0.00    -0.305 N 
ATOM      4  H   LEU A   2       1.905  -6.072  -8.481  0.00  0.00    +0.149 HD
ENDROOT
BRANCH   1   5
ATOM      5  CA  LEU A   1       1.108  -4.013  -6.983  0.00  0.00    +0.013 C 
BRANCH   5   6
ATOM      6  N   LEU A   1       0.834  -2.605  -6.529  0.00  0.00    +0.386 N 
ATOM      7  H   LEU A   1       0.011  -2.267  -7.063  0.00  0.00    -0.089 HD
ATOM      8  H   LEU A   1       1.609  -1.964  -6.729  0.00  0.00    -0.089 HD
ATOM      9  H   LEU A   1       0.584  -2.551  -5.539  0.00  0.00    -0.089 HD
ENDBRANCH   5   6
BRANCH   5  10
ATOM     10  CB  LEU A   1      -0.195  -4.817  -7.091  0.00  0.00    -0.004 C 
BRANCH  10  11
ATOM     11  CG  LEU A   1      -1.289  -4.501  -6.054  0.00  0.00    -0.018 C 
ATOM     12  CD1 LEU A   1      -2.470  -3.816  -6.751  0.00  0.00    +0.007 C 
ATOM     13  CD2 LEU A   1      -1.785  -5.755  -5.334  0.00  0.00    +0.007 C 
ENDBRANCH  10  11
ENDBRANCH   5  10
ENDBRANCH   1   5
BRANCH   3  14
ATOM     14  CA  LEU A   2       2.369  -5.290 -10.370  0.00  0.00    +0.159 C 
BRANCH  14  15
ATOM     15  C   LEU A   2       1.668  -6.308 -11.287  0.00  0.00    +0.234 C 
ATOM     16  O   LEU A   2       1.292  -7.396 -10.873  0.00  0.00    -0.274 OA
ATOM     17  N   GLY A   3       1.290  -5.775 -12.516  0.00  0.00    -0.298 N 
ATOM     18  H   GLY A   3       1.980  -5.147 -12.893  0.00  0.00    +0.150 HD
BRANCH  17  19
ATOM     19  CA  GLY A   3       0.802  -6.714 -13.537  0.00  0.00    +0.263 C 
BRANCH  19  20
ATOM     20  C   GLY A   3       1.693  -6.719 -14.810  0.00  0.00    +0.251 C 
ATOM     21  O   GLY A   3       1.278  -7.395 -15.785  0.00  0.00    -0.204 OA
ATOM     22  OXT GLY A   3       2.730  -5.965 -14.681  0.00  0.00    -0.204 OA
ENDBRANCH  19  20
ENDBRANCH  17  19
ENDBRANCH  14  15
BRANCH  14  23
ATOM     23  CB  LEU A   2       3.845  -5.693 -10.235  0.00  0.00    +0.034 C 
BRANCH  23  24
ATOM     24  CG  LEU A   2       4.777  -4.969 -11.229  0.00  0.00    -0.015 C 
ATOM     25  CD1 LEU A   2       4.107  -3.745 -11.855  0.00  0.00    +0.007 C 
ATOM     26  CD2 LEU A   2       6.085  -4.573 -10.544  0.00  0.00    +0.007 C 
ENDBRANCH  23  24
ENDBRANCH  14  23
ENDBRANCH   3  14
TORSDOF 10
ENDMDL
MODEL 2
REMARK VINA RESULT:      -6.7      2.602      3.751
REMARK  Name = LLG_min.pdb
REMARK  14 active torsions:
REMARK  status: ('A' for Active; 'I' for Inactive)
REMARK    1  A    between atoms: N_1  and  CA_2
REMARK    2  A    between atoms: CA_2  and  C_3
REMARK    3  A    between atoms: CA_2  and  CB_5
REMARK    4  A    between atoms: CB_5  and  CG_6
REMARK    5  A    between atoms: CG_6  and  CD1_7
REMARK    6  A    between atoms: CG_6  and  CD2_8
REMARK    7  A    between atoms: N_9  and  CA_10
REMARK    8  A    between atoms: CA_10  and  C_11
REMARK    9  A    between atoms: CA_10  and  CB_13
REMARK   10  A    between atoms: CB_13  and  CG_14
REMARK   11  A    between atoms: CG_14  and  CD1_15
REMARK   12  A    between atoms: CG_14  and  CD2_16
REMARK   13  A    between atoms: N_17  and  CA_18
REMARK   14  A    between atoms: CA_18  and  C_19
REMARK                            x       y       z     vdW  Elec       q    Type
REMARK                         _______ _______ _______ _____ _____    ______ ____
ROOT
ATOM      1  C   LEU A   1       1.992  -4.845  -7.676  0.00  0.00    +0.199 C 
ATOM      2  O   LEU A   1       3.093  -5.262  -7.340  0.00  0.00    -0.278 OA
ATOM      3  N   LEU A   2       1.496  -4.940  -8.975  0.00  0.00    -0.305 N 
ATOM      4  H   LEU A   2       0.567  -5.321  -9.060  0.00  0.00    +0.149 HD
ENDROOT
BRANCH   1   5
ATOM      5  CA  LEU A   1       1.009  -4.280  -6.644  0.00  0.00    +0.013 C 
BRANCH   5   6
ATOM      6  N   LEU A   1       0.968  -2.777  -6.688  0.00  0.00    +0.386 N 
ATOM      7  H   LEU A   1       1.601  -2.433  -5.941  0.00  0.00    -0.089 HD
ATOM      8  H   LEU A   1       0.035  -2.398  -6.492  0.00  0.00    -0.089 HD
ATOM      9  H   LEU A   1       1.321  -2.397  -7.568  0.00  0.00    -0.089 HD
ENDBRANCH   5   6
BRANCH   5  10
ATOM     10  CB  LEU A   1      -0.378  -4.875  -6.922  0.00  0.00    -0.004 C 
BRANCH  10  11
ATOM     11  CG  LEU A   1      -1.482  -4.563  -5.895  0.00  0.00    -0.018 C 
ATOM     12  CD1 LEU A   1      -2.661  -3.885  -6.603  0.00  0.00    +0.007 C 
ATOM     13  CD2 LEU A   1      -1.977  -5.819  -5.177  0.00  0.00    +0.007 C 
ENDBRANCH  10  11
ENDBRANCH   5  10
ENDBRANCH   1   5
BRANCH   3  14
ATOM     14  CA  LEU A   2       2.436  -5.462  -9.999  0.00  0.00    +0.159 C 
BRANCH  14  15
ATOM     15  C   LEU A   2       3.148  -4.311 -10.730  0.00  0.00    +0.234 C 
ATOM     16  O   LEU A   2       2.899  -3.140 -10.484  0.00  0.00    -0.274 OA
ATOM     17  N   GLY A   3       4.244  -4.728 -11.481  0.00  0.00    -0.298 N 
ATOM     18  H   GLY A   3       4.077  -5.600 -11.954  0.00  0.00    +0.150 HD
BRANCH  17  19
ATOM     19  CA  GLY A   3       4.862  -3.740 -12.378  0.00  0.00    +0.263 C 
BRANCH  19  20
ATOM     20  C   GLY A   3       6.414  -3.768 -12.308  0.00  0.00    +0.251 C 
ATOM     21  O   GLY A   3       6.930  -4.659 -11.587  0.00  0.00    -0.204 OA
ATOM     22  OXT GLY A   3       6.951  -2.872 -13.063  0.00  0.00    -0.204 OA
ENDBRANCH  19  20
ENDBRANCH  17  19
ENDBRANCH  14  15
BRANCH  14  23
ATOM     23  CB  LEU A   2       1.676  -6.302 -11.037  0.00  0.00    +0.034 C 
BRANCH  23  24
ATOM     24  CG  LEU A   2       1.938  -7.818 -10.918  0.00  0.00    -0.015 C 
ATOM     25  CD1 LEU A   2       2.151  -8.251  -9.466  0.00  0.00    +0.007 C 
ATOM     26  CD2 LEU A   2       0.794  -8.609 -11.551  0.00  0.00    +0.007 C 
ENDBRANCH  23  24
ENDBRANCH  14  23
ENDBRANCH   3  14
TORSDOF 10
ENDMDL
MODEL 3
REMARK VINA RESULT:      -6.6      1.907      2.638
REMARK  Name = LLG_min.pdb
REMARK  14 active torsions:
REMARK  status: ('A' for Active; 'I' for Inactive)
REMARK    1  A    between atoms: N_1  and  CA_2
REMARK    2  A    between atoms: CA_2  and  C_3
REMARK    3  A    between atoms: CA_2  and  CB_5
REMARK    4  A    between atoms: CB_5  and  CG_6
REMARK    5  A    between atoms: CG_6  and  CD1_7
REMARK    6  A    between atoms: CG_6  and  CD2_8
REMARK    7  A    between atoms: N_9  and  CA_10
REMARK    8  A    between atoms: CA_10  and  C_11
REMARK    9  A    between atoms: CA_10  and  CB_13
REMARK   10  A    between atoms: CB_13  and  CG_14
REMARK   11  A    between atoms: CG_14  and  CD1_15
REMARK   12  A    between atoms: CG_14  and  CD2_16
REMARK   13  A    between atoms: N_17  and  CA_18
REMARK   14  A    between atoms: CA_18  and  C_19
REMARK                            x       y       z     vdW  Elec       q    Type
REMARK                         _______ _______ _______ _____ _____    ______ ____
ROOT
ATOM      1  C   LEU A   1       1.910  -4.795  -7.640  0.00  0.00    +0.199 C 
ATOM      2  O   LEU A   1       3.114  -4.622  -7.493  0.00  0.00    -0.278 OA
ATOM      3  N   LEU A   2       1.362  -5.598  -8.637  0.00  0.00    -0.305 N 
ATOM      4  H   LEU A   2       0.680  -6.272  -8.328  0.00  0.00    +0.149 HD
ENDROOT
BRANCH   1   5
ATOM      5  CA  LEU A   1       0.900  -4.217  -6.640  0.00  0.00    +0.013 C 
BRANCH   5   6
ATOM      6  N   LEU A   1       0.883  -2.714  -6.681  0.00  0.00    +0.386 N 
ATOM      7  H   LEU A   1       1.871  -2.397  -6.645  0.00  0.00    -0.089 HD
ATOM      8  H   LEU A   1       0.403  -2.299  -5.875  0.00  0.00    -0.089 HD
ATOM      9  H   LEU A   1       0.489  -2.346  -7.549  0.00  0.00    -0.089 HD
ENDBRANCH   5   6
BRANCH   5  10
ATOM     10  CB  LEU A   1      -0.485  -4.790  -6.969  0.00  0.00    -0.004 C 
BRANCH  10  11
ATOM     11  CG  LEU A   1      -1.601  -4.532  -5.939  0.00  0.00    -0.018 C 
ATOM     12  CD1 LEU A   1      -2.829  -3.955  -6.653  0.00  0.00    +0.007 C 
ATOM     13  CD2 LEU A   1      -2.002  -5.803  -5.190  0.00  0.00    +0.007 C 
ENDBRANCH  10  11
ENDBRANCH   5  10
ENDBRANCH   1   5
BRANCH   3  14
ATOM     14  CA  LEU A   2       2.316  -6.150  -9.632  0.00  0.00    +0.159 C 
BRANCH  14  15
ATOM     15  C   LEU A   2       2.035  -5.586 -11.035  0.00  0.00    +0.234 C 
ATOM     16  O   LEU A   2       2.440  -4.485 -11.380  0.00  0.00    -0.274 OA
ATOM     17  N   GLY A   3       1.519  -6.532 -11.917  0.00  0.00    -0.298 N 
ATOM     18  H   GLY A   3       0.855  -7.147 -11.478  0.00  0.00    +0.150 HD
BRANCH  17  19
ATOM     19  CA  GLY A   3       1.026  -6.045 -13.215  0.00  0.00    +0.263 C 
BRANCH  19  20
ATOM     20  C   GLY A   3       1.112  -7.129 -14.325  0.00  0.00    +0.251 C 
ATOM     21  O   GLY A   3       2.037  -7.003 -15.166  0.00  0.00    -0.204 OA
ATOM     22  OXT GLY A   3       0.219  -8.047 -14.178  0.00  0.00    -0.204 OA
ENDBRANCH  19  20
ENDBRANCH  17  19
ENDBRANCH  14  15
BRANCH  14  23
ATOM     23  CB  LEU A   2       2.196  -7.681  -9.690  0.00  0.00    +0.034 C 
BRANCH  23  24
ATOM     24  CG  LEU A   2       2.311  -8.363  -8.311  0.00  0.00    -0.015 C 
ATOM     25  CD1 LEU A   2       2.034  -9.865  -8.389  0.00  0.00    +0.007 C 
ATOM     26  CD2 LEU A   2       3.687  -8.103  -7.699  0.00  0.00    +0.007 C 
ENDBRANCH  23  24
ENDBRANCH  14  23
ENDBRANCH   3  14
TORSDOF 10
ENDMDL
MODEL 4
REMARK VINA RESULT:      -6.6      2.515      4.240
REMARK  Name = LLG_min.pdb
REMARK  14 active torsions:
REMARK  status: ('A' for Active; 'I' for Inactive)
REMARK    1  A    between atoms: N_1  and  CA_2
REMARK    2  A    between atoms: CA_2  and  C_3
REMARK    3  A    between atoms: CA_2  and  CB_5
REMARK    4  A    between atoms: CB_5  and  CG_6
REMARK    5  A    between atoms: CG_6  and  CD1_7
REMARK    6  A    between atoms: CG_6  and  CD2_8
REMARK    7  A    between atoms: N_9  and  CA_10
REMARK    8  A    between atoms: CA_10  and  C_11
REMARK    9  A    between atoms: CA_10  and  CB_13
REMARK   10  A    between atoms: CB_13  and  CG_14
REMARK   11  A    between atoms: CG_14  and  CD1_15
REMARK   12  A    between atoms: CG_14  and  CD2_16
REMARK   13  A    between atoms: N_17  and  CA_18
REMARK   14  A    between atoms: CA_18  and  C_19
REMARK                            x       y       z     vdW  Elec       q    Type
REMARK                         _______ _______ _______ _____ _____    ______ ____
ROOT
ATOM      1  C   LEU A   1       1.945  -4.999  -7.613  0.00  0.00    +0.199 C 
ATOM      2  O   LEU A   1       2.949  -5.566  -7.199  0.00  0.00    -0.278 OA
ATOM      3  N   LEU A   2       1.553  -5.005  -8.949  0.00  0.00    -0.305 N 
ATOM      4  H   LEU A   2       0.592  -5.256  -9.121  0.00  0.00    +0.149 HD
ENDROOT
BRANCH   1   5
ATOM      5  CA  LEU A   1       0.962  -4.325  -6.648  0.00  0.00    +0.013 C 
BRANCH   5   6
ATOM      6  N   LEU A   1       1.049  -2.825  -6.733  0.00  0.00    +0.386 N 
ATOM      7  H   LEU A   1       0.554  -2.541  -7.600  0.00  0.00    -0.089 HD
ATOM      8  H   LEU A   1       2.013  -2.486  -6.809  0.00  0.00    -0.089 HD
ATOM      9  H   LEU A   1       0.574  -2.358  -5.958  0.00  0.00    -0.089 HD
ENDBRANCH   5   6
BRANCH   5  10
ATOM     10  CB  LEU A   1      -0.454  -4.812  -6.984  0.00  0.00    -0.004 C 
BRANCH  10  11
ATOM     11  CG  LEU A   1      -1.548  -4.529  -5.937  0.00  0.00    -0.018 C 
ATOM     12  CD1 LEU A   1      -2.757  -3.885  -6.624  0.00  0.00    +0.007 C 
ATOM     13  CD2 LEU A   1      -1.995  -5.798  -5.210  0.00  0.00    +0.007 C 
ENDBRANCH  10  11
ENDBRANCH   5  10
ENDBRANCH   1   5
BRANCH   3  14
ATOM     14  CA  LEU A   2       2.498  -5.631  -9.908  0.00  0.00    +0.159 C 
BRANCH  14  15
ATOM     15  C   LEU A   2       3.543  -4.612 -10.395  0.00  0.00    +0.234 C 
ATOM     16  O   LEU A   2       3.292  -3.418 -10.471  0.00  0.00    -0.274 OA
ATOM     17  N   GLY A   3       4.828  -5.140 -10.487  0.00  0.00    -0.298 N 
ATOM     18  H   GLY A   3       4.834  -6.080 -10.845  0.00  0.00    +0.150 HD
BRANCH  17  19
ATOM     19  CA  GLY A   3       5.853  -4.310 -11.137  0.00  0.00    +0.263 C 
BRANCH  19  20
ATOM     20  C   GLY A   3       7.188  -4.288 -10.343  0.00  0.00    +0.251 C 
ATOM     21  O   GLY A   3       8.240  -4.486 -11.003  0.00  0.00    -0.204 OA
ATOM     22  OXT GLY A   3       7.008  -4.014  -9.097  0.00  0.00    -0.204 OA
ENDBRANCH  19  20
ENDBRANCH  17  19
ENDBRANCH  14  15
BRANCH  14  23
ATOM     23  CB  LEU A   2       1.737  -6.169 -11.129  0.00  0.00    +0.034 C 
BRANCH  23  24
ATOM     24  CG  LEU A   2       1.901  -7.689 -11.339  0.00  0.00    -0.015 C 
ATOM     25  CD1 LEU A   2       1.987  -8.445 -10.012  0.00  0.00    +0.007 C 
ATOM     26  CD2 LEU A   2       0.758  -8.236 -12.194  0.00  0.00    +0.007 C 
ENDBRANCH  23  24
ENDBRANCH  14  23
ENDBRANCH   3  14
TORSDOF 10
ENDMDL
MODEL 5
REMARK VINA RESULT:      -6.6      1.620      2.341
REMARK  Name = LLG_min.pdb
REMARK  14 active torsions:
REMARK  status: ('A' for Active; 'I' for Inactive)
REMARK    1  A    between atoms: N_1  and  CA_2
REMARK    2  A    between atoms: CA_2  and  C_3
REMARK    3  A    between atoms: CA_2  and  CB_5
REMARK    4  A    between atoms: CB_5  and  CG_6
REMARK    5  A    between atoms: CG_6  and  CD1_7
REMARK    6  A    between atoms: CG_6  and  CD2_8
REMARK    7  A    between atoms: N_9  and  CA_10
REMARK    8  A    between atoms: CA_10  and  C_11
REMARK    9  A    between atoms: CA_10  and  CB_13
REMARK   10  A    between atoms: CB_13  and  CG_14
REMARK   11  A    between atoms: CG_14  and  CD1_15
REMARK   12  A    between atoms: CG_14  and  CD2_16
REMARK   13  A    between atoms: N_17  and  CA_18
REMARK   14  A    between atoms: CA_18  and  C_19
REMARK                            x       y       z     vdW  Elec       q    Type
REMARK                         _______ _______ _______ _____ _____    ______ ____
ROOT
ATOM      1  C   LEU A   1       1.936  -4.937  -7.710  0.00  0.00    +0.199 C 
ATOM      2  O   LEU A   1       3.136  -5.009  -7.477  0.00  0.00    -0.278 OA
ATOM      3  N   LEU A   2       1.335  -5.494  -8.836  0.00  0.00    -0.305 N 
ATOM      4  H   LEU A   2       0.523  -6.065  -8.660  0.00  0.00    +0.149 HD
ENDROOT
BRANCH   1   5
ATOM      5  CA  LEU A   1       0.968  -4.314  -6.696  0.00  0.00    +0.013 C 
BRANCH   5   6
ATOM      6  N   LEU A   1       1.022  -2.812  -6.734  0.00  0.00    +0.386 N 
ATOM      7  H   LEU A   1       0.330  -2.500  -7.443  0.00  0.00    -0.089 HD
ATOM      8  H   LEU A   1       1.937  -2.454  -7.027  0.00  0.00    -0.089 HD
ATOM      9  H   LEU A   1       0.746  -2.383  -5.849  0.00  0.00    -0.089 HD
ENDBRANCH   5   6
BRANCH   5  10
ATOM     10  CB  LEU A   1      -0.448  -4.820  -7.007  0.00  0.00    -0.004 C 
BRANCH  10  11
ATOM     11  CG  LEU A   1      -1.536  -4.511  -5.963  0.00  0.00    -0.018 C 
ATOM     12  CD1 LEU A   1      -2.738  -3.859  -6.656  0.00  0.00    +0.007 C 
ATOM     13  CD2 LEU A   1      -1.999  -5.766  -5.221  0.00  0.00    +0.007 C 
ENDBRANCH  10  11
ENDBRANCH   5  10
ENDBRANCH   1   5
BRANCH   3  14
ATOM     14  CA  LEU A   2       2.251  -6.083  -9.845  0.00  0.00    +0.159 C 
BRANCH  14  15
ATOM     15  C   LEU A   2       1.971  -5.510 -11.245  0.00  0.00    +0.234 C 
ATOM     16  O   LEU A   2       2.399  -4.418 -11.591  0.00  0.00    -0.274 OA
ATOM     17  N   GLY A   3       1.425  -6.441 -12.124  0.00  0.00    -0.298 N 
ATOM     18  H   GLY A   3       0.750  -7.040 -11.680  0.00  0.00    +0.150 HD
BRANCH  17  19
ATOM     19  CA  GLY A   3       0.932  -5.939 -13.415  0.00  0.00    +0.263 C 
BRANCH  19  20
ATOM     20  C   GLY A   3       1.834  -6.376 -14.603  0.00  0.00    +0.251 C 
ATOM     21  O   GLY A   3       2.989  -5.881 -14.644  0.00  0.00    -0.204 OA
ATOM     22  OXT GLY A   3       1.255  -7.242 -15.361  0.00  0.00    -0.204 OA
ENDBRANCH  19  20
ENDBRANCH  17  19
ENDBRANCH  14  15
BRANCH  14  23
ATOM     23  CB  LEU A   2       2.072  -7.608  -9.899  0.00  0.00    +0.034 C 
BRANCH  23  24
ATOM     24  CG  LEU A   2       3.191  -8.389  -9.179  0.00  0.00    -0.015 C 
ATOM     25  CD1 LEU A   2       4.542  -7.679  -9.279  0.00  0.00    +0.007 C 
ATOM     26  CD2 LEU A   2       2.819  -8.628  -7.716  0.00  0.00    +0.007 C 
ENDBRANCH  23  24
ENDBRANCH  14  23
ENDBRANCH   3  14
TORSDOF 10
ENDMDL
MODEL 6
REMARK VINA RESULT:      -6.6      1.747      2.494
REMARK  Name = LLG_min.pdb
REMARK  14 active torsions:
REMARK  status: ('A' for Active; 'I' for Inactive)
REMARK    1  A    between atoms: N_1  and  CA_2
REMARK    2  A    between atoms: CA_2  and  C_3
REMARK    3  A    between atoms: CA_2  and  CB_5
REMARK    4  A    between atoms: CB_5  and  CG_6
REMARK    5  A    between atoms: CG_6  and  CD1_7
REMARK    6  A    between atoms: CG_6  and  CD2_8
REMARK    7  A    between atoms: N_9  and  CA_10
REMARK    8  A    between atoms: CA_10  and  C_11
REMARK    9  A    between atoms: CA_10  and  CB_13
REMARK   10  A    between atoms: CB_13  and  CG_14
REMARK   11  A    between atoms: CG_14  and  CD1_15
REMARK   12  A    between atoms: CG_14  and  CD2_16
REMARK   13  A    between atoms: N_17  and  CA_18
REMARK   14  A    between atoms: CA_18  and  C_19
REMARK                            x       y       z     vdW  Elec       q    Type
REMARK                         _______ _______ _______ _____ _____    ______ ____
ROOT
ATOM      1  C   LEU A   1       1.960  -4.682  -7.902  0.00  0.00    +0.199 C 
ATOM      2  O   LEU A   1       2.968  -4.040  -8.171  0.00  0.00    -0.278 OA
ATOM      3  N   LEU A   2       1.623  -5.883  -8.521  0.00  0.00    -0.305 N 
ATOM      4  H   LEU A   2       1.386  -6.641  -7.901  0.00  0.00    +0.149 HD
ENDROOT
BRANCH   1   5
ATOM      5  CA  LEU A   1       1.034  -4.257  -6.755  0.00  0.00    +0.013 C 
BRANCH   5   6
ATOM      6  N   LEU A   1       0.901  -2.761  -6.680  0.00  0.00    +0.386 N 
ATOM      7  H   LEU A   1       0.112  -2.558  -6.037  0.00  0.00    -0.089 HD
ATOM      8  H   LEU A   1       0.673  -2.336  -7.584  0.00  0.00    -0.089 HD
ATOM      9  H   LEU A   1       1.727  -2.310  -6.280  0.00  0.00    -0.089 HD
ENDBRANCH   5   6
BRANCH   5  10
ATOM     10  CB  LEU A   1      -0.334  -4.919  -6.970  0.00  0.00    -0.004 C 
BRANCH  10  11
ATOM     11  CG  LEU A   1      -1.436  -4.572  -5.952  0.00  0.00    -0.018 C 
ATOM     12  CD1 LEU A   1      -2.581  -3.847  -6.669  0.00  0.00    +0.007 C 
ATOM     13  CD2 LEU A   1      -1.986  -5.813  -5.248  0.00  0.00    +0.007 C 
ENDBRANCH  10  11
ENDBRANCH   5  10
ENDBRANCH   1   5
BRANCH   3  14
ATOM     14  CA  LEU A   2       2.490  -6.305  -9.650  0.00  0.00    +0.159 C 
BRANCH  14  15
ATOM     15  C   LEU A   2       1.646  -6.698 -10.875  0.00  0.00    +0.234 C 
ATOM     16  O   LEU A   2       1.000  -7.735 -10.906  0.00  0.00    -0.274 OA
ATOM     17  N   GLY A   3       1.496  -5.665 -11.797  0.00  0.00    -0.298 N 
ATOM     18  H   GLY A   3       2.339  -5.129 -11.916  0.00  0.00    +0.150 HD
BRANCH  17  19
ATOM     19  CA  GLY A   3       0.885  -6.001 -13.091  0.00  0.00    +0.263 C 
BRANCH  19  20
ATOM     20  C   GLY A   3       1.942  -6.174 -14.217  0.00  0.00    +0.251 C 
ATOM     21  O   GLY A   3       3.092  -5.724 -13.985  0.00  0.00    -0.204 OA
ATOM     22  OXT GLY A   3       1.472  -6.817 -15.231  0.00  0.00    -0.204 OA
ENDBRANCH  19  20
ENDBRANCH  17  19
ENDBRANCH  14  15
BRANCH  14  23
ATOM     23  CB  LEU A   2       3.345  -7.514  -9.241  0.00  0.00    +0.034 C 
BRANCH  23  24
ATOM     24  CG  LEU A   2       2.855  -8.210  -7.954  0.00  0.00    -0.015 C 
ATOM     25  CD1 LEU A   2       2.341  -9.624  -8.227  0.00  0.00    +0.007 C 
ATOM     26  CD2 LEU A   2       3.967  -8.238  -6.905  0.00  0.00    +0.007 C 
ENDBRANCH  23  24
ENDBRANCH  14  23
ENDBRANCH   3  14
TORSDOF 10
ENDMDL
MODEL 7
REMARK VINA RESULT:      -6.5      2.684      6.468
REMARK  Name = LLG_min.pdb
REMARK  14 active torsions:
REMARK  status: ('A' for Active; 'I' for Inactive)
REMARK    1  A    between atoms: N_1  and  CA_2
REMARK    2  A    between atoms: CA_2  and  C_3
REMARK    3  A    between atoms: CA_2  and  CB_5
REMARK    4  A    between atoms: CB_5  and  CG_6
REMARK    5  A    between atoms: CG_6  and  CD1_7
REMARK    6  A    between atoms: CG_6  and  CD2_8
REMARK    7  A    between atoms: N_9  and  CA_10
REMARK    8  A    between atoms: CA_10  and  C_11
REMARK    9  A    between atoms: CA_10  and  CB_13
REMARK   10  A    between atoms: CB_13  and  CG_14
REMARK   11  A    between atoms: CG_14  and  CD1_15
REMARK   12  A    between atoms: CG_14  and  CD2_16
REMARK   13  A    between atoms: N_17  and  CA_18
REMARK   14  A    between atoms: CA_18  and  C_19
REMARK                            x       y       z     vdW  Elec       q    Type
REMARK                         _______ _______ _______ _____ _____    ______ ____
ROOT
ATOM      1  C   LEU A   1       1.961  -5.154 -10.148  0.00  0.00    +0.199 C 
ATOM      2  O   LEU A   1       1.663  -6.337 -10.039  0.00  0.00    -0.278 OA
ATOM      3  N   LEU A   2       1.998  -4.266  -9.076  0.00  0.00    -0.305 N 
ATOM      4  H   LEU A   2       2.838  -3.715  -8.994  0.00  0.00    +0.149 HD
ENDROOT
BRANCH   1   5
ATOM      5  CA  LEU A   1       2.440  -4.578 -11.487  0.00  0.00    +0.013 C 
BRANCH   5   6
ATOM      6  N   LEU A   1       3.727  -3.816 -11.331  0.00  0.00    +0.386 N 
ATOM      7  H   LEU A   1       3.723  -3.405 -10.377  0.00  0.00    -0.089 HD
ATOM      8  H   LEU A   1       3.814  -3.040 -11.995  0.00  0.00    -0.089 HD
ATOM      9  H   LEU A   1       4.552  -4.418 -11.386  0.00  0.00    -0.089 HD
ENDBRANCH   5   6
BRANCH   5  10
ATOM     10  CB  LEU A   1       2.606  -5.738 -12.479  0.00  0.00    -0.004 C 
BRANCH  10  11
ATOM     11  CG  LEU A   1       1.496  -5.910 -13.532  0.00  0.00    -0.018 C 
ATOM     12  CD1 LEU A   1       2.123  -5.963 -14.930  0.00  0.00    +0.007 C 
ATOM     13  CD2 LEU A   1       0.668  -7.174 -13.300  0.00  0.00    +0.007 C 
ENDBRANCH  10  11
ENDBRANCH   5  10
ENDBRANCH   1   5
BRANCH   3  14
ATOM     14  CA  LEU A   2       1.518  -4.791  -7.773  0.00  0.00    +0.159 C 
BRANCH  14  15
ATOM     15  C   LEU A   2       0.527  -3.814  -7.117  0.00  0.00    +0.234 C 
ATOM     16  O   LEU A   2       0.905  -2.809  -6.532  0.00  0.00    -0.274 OA
ATOM     17  N   GLY A   3      -0.799  -4.049  -7.473  0.00  0.00    -0.298 N 
ATOM     18  H   GLY A   3      -1.016  -5.030  -7.523  0.00  0.00    +0.150 HD
BRANCH  17  19
ATOM     19  CA  GLY A   3      -1.835  -3.306  -6.741  0.00  0.00    +0.263 C 
BRANCH  19  20
ATOM     20  C   GLY A   3      -3.155  -3.177  -7.552  0.00  0.00    +0.251 C 
ATOM     21  O   GLY A   3      -4.179  -3.706  -7.049  0.00  0.00    -0.204 OA
ATOM     22  OXT GLY A   3      -2.999  -2.485  -8.628  0.00  0.00    -0.204 OA
ENDBRANCH  19  20
ENDBRANCH  17  19
ENDBRANCH  14  15
BRANCH  14  23
ATOM     23  CB  LEU A   2       2.701  -4.999  -6.815  0.00  0.00    +0.034 C 
BRANCH  23  24
ATOM     24  CG  LEU A   2       3.778  -5.959  -7.363  0.00  0.00    -0.015 C 
ATOM     25  CD1 LEU A   2       5.024  -5.211  -7.840  0.00  0.00    +0.007 C 
ATOM     26  CD2 LEU A   2       4.150  -7.001  -6.309  0.00  0.00    +0.007 C 
ENDBRANCH  23  24
ENDBRANCH  14  23
ENDBRANCH   3  14
TORSDOF 10
ENDMDL
MODEL 8
REMARK VINA RESULT:      -6.5      1.386      2.184
REMARK  Name = LLG_min.pdb
REMARK  14 active torsions:
REMARK  status: ('A' for Active; 'I' for Inactive)
REMARK    1  A    between atoms: N_1  and  CA_2
REMARK    2  A    between atoms: CA_2  and  C_3
REMARK    3  A    between atoms: CA_2  and  CB_5
REMARK    4  A    between atoms: CB_5  and  CG_6
REMARK    5  A    between atoms: CG_6  and  CD1_7
REMARK    6  A    between atoms: CG_6  and  CD2_8
REMARK    7  A    between atoms: N_9  and  CA_10
REMARK    8  A    between atoms: CA_10  and  C_11
REMARK    9  A    between atoms: CA_10  and  CB_13
REMARK   10  A    between atoms: CB_13  and  CG_14
REMARK   11  A    between atoms: CG_14  and  CD1_15
REMARK   12  A    between atoms: CG_14  and  CD2_16
REMARK   13  A    between atoms: N_17  and  CA_18
REMARK   14  A    between atoms: CA_18  and  C_19
REMARK                            x       y       z     vdW  Elec       q    Type
REMARK                         _______ _______ _______ _____ _____    ______ ____
ROOT
ATOM      1  C   LEU A   1       2.057  -3.842  -8.588  0.00  0.00    +0.199 C 
ATOM      2  O   LEU A   1       2.438  -2.677  -8.586  0.00  0.00    -0.278 OA
ATOM      3  N   LEU A   2       2.370  -4.753  -9.594  0.00  0.00    -0.305 N 
ATOM      4  H   LEU A   2       2.734  -5.639  -9.282  0.00  0.00    +0.149 HD
ENDROOT
BRANCH   1   5
ATOM      5  CA  LEU A   1       1.287  -4.425  -7.397  0.00  0.00    +0.013 C 
BRANCH   5   6
ATOM      6  N   LEU A   1       2.197  -4.685  -6.227  0.00  0.00    +0.386 N 
ATOM      7  H   LEU A   1       3.053  -4.117  -6.375  0.00  0.00    -0.089 HD
ATOM      8  H   LEU A   1       2.492  -5.665  -6.162  0.00  0.00    -0.089 HD
ATOM      9  H   LEU A   1       1.795  -4.382  -5.338  0.00  0.00    -0.089 HD
ENDBRANCH   5   6
BRANCH   5  10
ATOM     10  CB  LEU A   1       0.172  -3.442  -7.015  0.00  0.00    -0.004 C 
BRANCH  10  11
ATOM     11  CG  LEU A   1      -1.262  -4.004  -6.985  0.00  0.00    -0.018 C 
ATOM     12  CD1 LEU A   1      -1.413  -4.952  -5.790  0.00  0.00    +0.007 C 
ATOM     13  CD2 LEU A   1      -2.314  -2.898  -6.890  0.00  0.00    +0.007 C 
ENDBRANCH  10  11
ENDBRANCH   5  10
ENDBRANCH   1   5
BRANCH   3  14
ATOM     14  CA  LEU A   2       3.095  -4.209 -10.770  0.00  0.00    +0.159 C 
BRANCH  14  15
ATOM     15  C   LEU A   2       2.685  -4.944 -12.058  0.00  0.00    +0.234 C 
ATOM     16  O   LEU A   2       3.486  -5.171 -12.952  0.00  0.00    -0.274 OA
ATOM     17  N   GLY A   3       1.422  -5.527 -11.983  0.00  0.00    -0.298 N 
ATOM     18  H   GLY A   3       0.758  -4.946 -11.500  0.00  0.00    +0.150 HD
BRANCH  17  19
ATOM     19  CA  GLY A   3       0.857  -6.072 -13.226  0.00  0.00    +0.263 C 
BRANCH  19  20
ATOM     20  C   GLY A   3       0.658  -7.611 -13.160  0.00  0.00    +0.251 C 
ATOM     21  O   GLY A   3       0.916  -8.167 -12.062  0.00  0.00    -0.204 OA
ATOM     22  OXT GLY A   3       0.198  -8.090 -14.265  0.00  0.00    -0.204 OA
ENDBRANCH  19  20
ENDBRANCH  17  19
ENDBRANCH  14  15
BRANCH  14  23
ATOM     23  CB  LEU A   2       4.611  -4.369 -10.580  0.00  0.00    +0.034 C 
BRANCH  23  24
ATOM     24  CG  LEU A   2       4.993  -5.422  -9.520  0.00  0.00    -0.015 C 
ATOM     25  CD1 LEU A   2       5.786  -6.582 -10.124  0.00  0.00    +0.007 C 
ATOM     26  CD2 LEU A   2       5.779  -4.773  -8.381  0.00  0.00    +0.007 C 
ENDBRANCH  23  24
ENDBRANCH  14  23
ENDBRANCH   3  14
TORSDOF 10
ENDMDL
MODEL 9
REMARK VINA RESULT:      -6.4      2.866      4.814
REMARK  Name = LLG_min.pdb
REMARK  14 active torsions:
REMARK  status: ('A' for Active; 'I' for Inactive)
REMARK    1  A    between atoms: N_1  and  CA_2
REMARK    2  A    between atoms: CA_2  and  C_3
REMARK    3  A    between atoms: CA_2  and  CB_5
REMARK    4  A    between atoms: CB_5  and  CG_6
REMARK    5  A    between atoms: CG_6  and  CD1_7
REMARK    6  A    between atoms: CG_6  and  CD2_8
REMARK    7  A    between atoms: N_9  and  CA_10
REMARK    8  A    between atoms: CA_10  and  C_11
REMARK    9  A    between atoms: CA_10  and  CB_13
REMARK   10  A    between atoms: CB_13  and  CG_14
REMARK   11  A    between atoms: CG_14  and  CD1_15
REMARK   12  A    between atoms: CG_14  and  CD2_16
REMARK   13  A    between atoms: N_17  and  CA_18
REMARK   14  A    between atoms: CA_18  and  C_19
REMARK                            x       y       z     vdW  Elec       q    Type
REMARK                         _______ _______ _______ _____ _____    ______ ____
ROOT
ATOM      1  C   LEU A   1       1.432  -4.936  -7.850  0.00  0.00    +0.199 C 
ATOM      2  O   LEU A   1       1.363  -6.156  -7.939  0.00  0.00    -0.278 OA
ATOM      3  N   LEU A   2       2.181  -4.142  -8.714  0.00  0.00    -0.305 N 
ATOM      4  H   LEU A   2       1.696  -3.353  -9.113  0.00  0.00    +0.149 HD
ENDROOT
BRANCH   1   5
ATOM      5  CA  LEU A   1       0.586  -4.167  -6.827  0.00  0.00    +0.013 C 
BRANCH   5   6
ATOM      6  N   LEU A   1       1.028  -2.734  -6.713  0.00  0.00    +0.386 N 
ATOM      7  H   LEU A   1       0.528  -2.202  -7.451  0.00  0.00    -0.089 HD
ATOM      8  H   LEU A   1       2.032  -2.613  -6.880  0.00  0.00    -0.089 HD
ATOM      9  H   LEU A   1       0.769  -2.310  -5.820  0.00  0.00    -0.089 HD
ENDBRANCH   5   6
BRANCH   5  10
ATOM     10  CB  LEU A   1      -0.885  -4.255  -7.255  0.00  0.00    -0.004 C 
BRANCH  10  11
ATOM     11  CG  LEU A   1      -1.933  -4.257  -6.126  0.00  0.00    -0.018 C 
ATOM     12  CD1 LEU A   1      -3.316  -3.951  -6.714  0.00  0.00    +0.007 C 
ATOM     13  CD2 LEU A   1      -1.983  -5.593  -5.385  0.00  0.00    +0.007 C 
ENDBRANCH  10  11
ENDBRANCH   5  10
ENDBRANCH   1   5
BRANCH   3  14
ATOM     14  CA  LEU A   2       3.027  -4.862  -9.699  0.00  0.00    +0.159 C 
BRANCH  14  15
ATOM     15  C   LEU A   2       4.448  -5.080  -9.149  0.00  0.00    +0.234 C 
ATOM     16  O   LEU A   2       5.291  -4.195  -9.174  0.00  0.00    -0.274 OA
ATOM     17  N   GLY A   3       4.581  -6.256  -8.416  0.00  0.00    -0.298 N 
ATOM     18  H   GLY A   3       4.074  -7.024  -8.822  0.00  0.00    +0.150 HD
BRANCH  17  19
ATOM     19  CA  GLY A   3       5.941  -6.656  -8.026  0.00  0.00    +0.263 C 
BRANCH  19  20
ATOM     20  C   GLY A   3       6.305  -6.193  -6.587  0.00  0.00    +0.251 C 
ATOM     21  O   GLY A   3       7.063  -5.196  -6.491  0.00  0.00    -0.204 OA
ATOM     22  OXT GLY A   3       5.714  -6.900  -5.686  0.00  0.00    -0.204 OA
ENDBRANCH  19  20
ENDBRANCH  17  19
ENDBRANCH  14  15
BRANCH  14  23
ATOM     23  CB  LEU A   2       3.130  -4.055 -11.002  0.00  0.00    +0.034 C 
BRANCH  23  24
ATOM     24  CG  LEU A   2       2.594  -4.806 -12.239  0.00  0.00    -0.015 C 
ATOM     25  CD1 LEU A   2       3.724  -5.341 -13.120  0.00  0.00    +0.007 C 
ATOM     26  CD2 LEU A   2       1.664  -5.943 -11.812  0.00  0.00    +0.007 C 
ENDBRANCH  23  24
ENDBRANCH  14  23
ENDBRANCH   3  14
TORSDOF 10
ENDMDL
MODEL 10
REMARK VINA RESULT:      -6.4      3.308      5.948
REMARK  Name = LLG_min.pdb
REMARK  14 active torsions:
REMARK  status: ('A' for Active; 'I' for Inactive)
REMARK    1  A    between atoms: N_1  and  CA_2
REMARK    2  A    between atoms: CA_2  and  C_3
REMARK    3  A    between atoms: CA_2  and  CB_5
REMARK    4  A    between atoms: CB_5  and  CG_6
REMARK    5  A    between atoms: CG_6  and  CD1_7
REMARK    6  A    between atoms: CG_6  and  CD2_8
REMARK    7  A    between atoms: N_9  and  CA_10
REMARK    8  A    between atoms: CA_10  and  C_11
REMARK    9  A    between atoms: CA_10  and  CB_13
REMARK   10  A    between atoms: CB_13  and  CG_14
REMARK   11  A    between atoms: CG_14  and  CD1_15
REMARK   12  A    between atoms: CG_14  and  CD2_16
REMARK   13  A    between atoms: N_17  and  CA_18
REMARK   14  A    between atoms: CA_18  and  C_19
REMARK                            x       y       z     vdW  Elec       q    Type
REMARK                         _______ _______ _______ _____ _____    ______ ____
ROOT
ATOM      1  C   LEU A   1       5.220  -5.238  -7.989  0.00  0.00    +0.199 C 
ATOM      2  O   LEU A   1       5.897  -4.292  -8.371  0.00  0.00    -0.278 OA
ATOM      3  N   LEU A   2       3.917  -5.476  -8.418  0.00  0.00    -0.305 N 
ATOM      4  H   LEU A   2       3.727  -6.412  -8.738  0.00  0.00    +0.149 HD
ENDROOT
BRANCH   1   5
ATOM      5  CA  LEU A   1       5.813  -6.320  -7.078  0.00  0.00    +0.013 C 
BRANCH   5   6
ATOM      6  N   LEU A   1       6.852  -5.751  -6.151  0.00  0.00    +0.386 N 
ATOM      7  H   LEU A   1       7.301  -6.552  -5.667  0.00  0.00    -0.089 HD
ATOM      8  H   LEU A   1       6.451  -5.146  -5.426  0.00  0.00    -0.089 HD
ATOM      9  H   LEU A   1       7.595  -5.255  -6.647  0.00  0.00    -0.089 HD
ENDBRANCH   5   6
BRANCH   5  10
ATOM     10  CB  LEU A   1       4.667  -6.966  -6.287  0.00  0.00    -0.004 C 
BRANCH  10  11
ATOM     11  CG  LEU A   1       4.504  -8.491  -6.428  0.00  0.00    -0.018 C 
ATOM     12  CD1 LEU A   1       3.294  -8.793  -7.320  0.00  0.00    +0.007 C 
ATOM     13  CD2 LEU A   1       5.748  -9.153  -7.021  0.00  0.00    +0.007 C 
ENDBRANCH  10  11
ENDBRANCH   5  10
ENDBRANCH   1   5
BRANCH   3  14
ATOM     14  CA  LEU A   2       3.310  -4.432  -9.282  0.00  0.00    +0.159 C 
BRANCH  14  15
ATOM     15  C   LEU A   2       2.420  -3.485  -8.459  0.00  0.00    +0.234 C 
ATOM     16  O   LEU A   2       2.579  -2.272  -8.478  0.00  0.00    -0.274 OA
ATOM     17  N   GLY A   3       1.298  -4.110  -7.921  0.00  0.00    -0.298 N 
ATOM     18  H   GLY A   3       1.498  -5.036  -7.582  0.00  0.00    +0.150 HD
BRANCH  17  19
ATOM     19  CA  GLY A   3       0.500  -3.344  -6.952  0.00  0.00    +0.263 C 
BRANCH  19  20
ATOM     20  C   GLY A   3      -0.885  -3.994  -6.681  0.00  0.00    +0.251 C 
ATOM     21  O   GLY A   3      -0.909  -5.246  -6.578  0.00  0.00    -0.204 OA
ATOM     22  OXT GLY A   3      -1.819  -3.114  -6.555  0.00  0.00    -0.204 OA
ENDBRANCH  19  20
ENDBRANCH  17  19
ENDBRANCH  14  15
BRANCH  14  23
ATOM     23  CB  LEU A   2       2.448  -5.082 -10.375  0.00  0.00    +0.034 C 
BRANCH  23  24
ATOM     24  CG  LEU A   2       2.602  -4.420 -11.760  0.00  0.00    -0.015 C 
ATOM     25  CD1 LEU A   2       3.998  -3.827 -11.960  0.00  0.00    +0.007 C 
ATOM     26  CD2 LEU A   2       2.280  -5.420 -12.870  0.00  0.00    +0.007 C 
ENDBRANCH  23  24
ENDBRANCH  14  23
ENDBRANCH   3  14
TORSDOF 10
ENDMDL
MODEL 11
REMARK VINA RESULT:      -6.4      1.396      1.689
REMARK  Name = LLG_min.pdb
REMARK  14 active torsions:
REMARK  status: ('A' for Active; 'I' for Inactive)
REMARK    1  A    between atoms: N_1  and  CA_2
REMARK    2  A    between atoms: CA_2  and  C_3
REMARK    3  A    between atoms: CA_2  and  CB_5
REMARK    4  A    between atoms: CB_5  and  CG_6
REMARK    5  A    between atoms: CG_6  and  CD1_7
REMARK    6  A    between atoms: CG_6  and  CD2_8
REMARK    7  A    between atoms: N_9  and  CA_10
REMARK    8  A    between atoms: CA_10  and  C_11
REMARK    9  A    between atoms: CA_10  and  CB_13
REMARK   10  A    between atoms: CB_13  and  CG_14
REMARK   11  A    between atoms: CG_14  and  CD1_15
REMARK   12  A    between atoms: CG_14  and  CD2_16
REMARK   13  A    between atoms: N_17  and  CA_18
REMARK   14  A    between atoms: CA_18  and  C_19
REMARK                            x       y       z     vdW  Elec       q    Type
REMARK                         _______ _______ _______ _____ _____    ______ ____
ROOT
ATOM      1  C   LEU A   1       1.933  -4.540  -8.019  0.00  0.00    +0.199 C 
ATOM      2  O   LEU A   1       2.284  -3.638  -8.770  0.00  0.00    -0.278 OA
ATOM      3  N   LEU A   2       2.362  -5.859  -8.147  0.00  0.00    -0.305 N 
ATOM      4  H   LEU A   2       2.716  -6.286  -7.305  0.00  0.00    +0.149 HD
ENDROOT
BRANCH   1   5
ATOM      5  CA  LEU A   1       1.069  -4.252  -6.785  0.00  0.00    +0.013 C 
BRANCH   5   6
ATOM      6  N   LEU A   1       0.903  -2.774  -6.561  0.00  0.00    +0.386 N 
ATOM      7  H   LEU A   1       0.378  -2.658  -5.673  0.00  0.00    -0.089 HD
ATOM      8  H   LEU A   1       0.356  -2.319  -7.299  0.00  0.00    -0.089 HD
ATOM      9  H   LEU A   1       1.795  -2.291  -6.438  0.00  0.00    -0.089 HD
ENDBRANCH   5   6
BRANCH   5  10
ATOM     10  CB  LEU A   1      -0.293  -4.933  -6.981  0.00  0.00    -0.004 C 
BRANCH  10  11
ATOM     11  CG  LEU A   1      -1.385  -4.604  -5.947  0.00  0.00    -0.018 C 
ATOM     12  CD1 LEU A   1      -2.543  -3.879  -6.641  0.00  0.00    +0.007 C 
ATOM     13  CD2 LEU A   1      -1.917  -5.856  -5.249  0.00  0.00    +0.007 C 
ENDBRANCH  10  11
ENDBRANCH   5  10
ENDBRANCH   1   5
BRANCH   3  14
ATOM     14  CA  LEU A   2       3.181  -6.169  -9.345  0.00  0.00    +0.159 C 
BRANCH  14  15
ATOM     15  C   LEU A   2       2.540  -7.296 -10.173  0.00  0.00    +0.234 C 
ATOM     16  O   LEU A   2       2.461  -8.441  -9.751  0.00  0.00    -0.274 OA
ATOM     17  N   GLY A   3       1.855  -6.836 -11.295  0.00  0.00    -0.298 N 
ATOM     18  H   GLY A   3       2.333  -6.081 -11.756  0.00  0.00    +0.150 HD
BRANCH  17  19
ATOM     19  CA  GLY A   3       1.386  -7.844 -12.258  0.00  0.00    +0.263 C 
BRANCH  19  20
ATOM     20  C   GLY A   3       0.571  -7.215 -13.422  0.00  0.00    +0.251 C 
ATOM     21  O   GLY A   3       0.394  -5.971 -13.379  0.00  0.00    -0.204 OA
ATOM     22  OXT GLY A   3       0.231  -8.089 -14.306  0.00  0.00    -0.204 OA
ENDBRANCH  19  20
ENDBRANCH  17  19
ENDBRANCH  14  15
BRANCH  14  23
ATOM     23  CB  LEU A   2       4.589  -6.616  -8.925  0.00  0.00    +0.034 C 
BRANCH  23  24
ATOM     24  CG  LEU A   2       5.687  -5.578  -9.239  0.00  0.00    -0.015 C 
ATOM     25  CD1 LEU A   2       5.372  -4.775 -10.502  0.00  0.00    +0.007 C 
ATOM     26  CD2 LEU A   2       5.896  -4.644  -8.048  0.00  0.00    +0.007 C 
ENDBRANCH  23  24
ENDBRANCH  14  23
ENDBRANCH   3  14
TORSDOF 10
ENDMDL
MODEL 12
REMARK VINA RESULT:      -6.4      3.269      6.331
REMARK  Name = LLG_min.pdb
REMARK  14 active torsions:
REMARK  status: ('A' for Active; 'I' for Inactive)
REMARK    1  A    between atoms: N_1  and  CA_2
REMARK    2  A    between atoms: CA_2  and  C_3
REMARK    3  A    between atoms: CA_2  and  CB_5
REMARK    4  A    between atoms: CB_5  and  CG_6
REMARK    5  A    between atoms: CG_6  and  CD1_7
REMARK    6  A    between atoms: CG_6  and  CD2_8
REMARK    7  A    between atoms: N_9  and  CA_10
REMARK    8  A    between atoms: CA_10  and  C_11
REMARK    9  A    between atoms: CA_10  and  CB_13
REMARK   10  A    between atoms: CB_13  and  CG_14
REMARK   11  A    between atoms: CG_14  and  CD1_15
REMARK   12  A    between atoms: CG_14  and  CD2_16
REMARK   13  A    between atoms: N_17  and  CA_18
REMARK   14  A    between atoms: CA_18  and  C_19
REMARK                            x       y       z     vdW  Elec       q    Type
REMARK                         _______ _______ _______ _____ _____    ______ ____
ROOT
ATOM      1  C   LEU A   1       4.453  -5.007  -8.260  0.00  0.00    +0.199 C 
ATOM      2  O   LEU A   1       4.473  -4.127  -9.112  0.00  0.00    -0.278 OA
ATOM      3  N   LEU A   2       3.289  -5.644  -7.837  0.00  0.00    -0.305 N 
ATOM      4  H   LEU A   2       3.322  -6.651  -7.828  0.00  0.00    +0.149 HD
ENDROOT
BRANCH   1   5
ATOM      5  CA  LEU A   1       5.753  -5.564  -7.667  0.00  0.00    +0.013 C 
BRANCH   5   6
ATOM      6  N   LEU A   1       6.739  -4.467  -7.373  0.00  0.00    +0.386 N 
ATOM      7  H   LEU A   1       7.362  -4.812  -6.618  0.00  0.00    -0.089 HD
ATOM      8  H   LEU A   1       6.292  -3.611  -7.029  0.00  0.00    -0.089 HD
ATOM      9  H   LEU A   1       7.340  -4.250  -8.171  0.00  0.00    -0.089 HD
ENDBRANCH   5   6
BRANCH   5  10
ATOM     10  CB  LEU A   1       5.406  -6.346  -6.392  0.00  0.00    -0.004 C 
BRANCH  10  11
ATOM     11  CG  LEU A   1       5.841  -7.822  -6.348  0.00  0.00    -0.018 C 
ATOM     12  CD1 LEU A   1       4.606  -8.721  -6.476  0.00  0.00    +0.007 C 
ATOM     13  CD2 LEU A   1       6.835  -8.167  -7.458  0.00  0.00    +0.007 C 
ENDBRANCH  10  11
ENDBRANCH   5  10
ENDBRANCH   1   5
BRANCH   3  14
ATOM     14  CA  LEU A   2       2.015  -5.109  -8.378  0.00  0.00    +0.159 C 
BRANCH  14  15
ATOM     15  C   LEU A   2       1.098  -4.620  -7.243  0.00  0.00    +0.234 C 
ATOM     16  O   LEU A   2       1.518  -3.924  -6.330  0.00  0.00    -0.274 OA
ATOM     17  N   GLY A   3      -0.255  -4.827  -7.498  0.00  0.00    -0.298 N 
ATOM     18  H   GLY A   3      -0.432  -5.711  -7.945  0.00  0.00    +0.150 HD
BRANCH  17  19
ATOM     19  CA  GLY A   3      -1.194  -4.585  -6.393  0.00  0.00    +0.263 C 
BRANCH  19  20
ATOM     20  C   GLY A   3      -2.241  -3.488  -6.735  0.00  0.00    +0.251 C 
ATOM     21  O   GLY A   3      -3.376  -3.886  -7.098  0.00  0.00    -0.204 OA
ATOM     22  OXT GLY A   3      -1.780  -2.300  -6.542  0.00  0.00    -0.204 OA
ENDBRANCH  19  20
ENDBRANCH  17  19
ENDBRANCH  14  15
BRANCH  14  23
ATOM     23  CB  LEU A   2       1.273  -6.198  -9.167  0.00  0.00    +0.034 C 
BRANCH  23  24
ATOM     24  CG  LEU A   2       1.944  -6.555 -10.509  0.00  0.00    -0.015 C 
ATOM     25  CD1 LEU A   2       1.211  -7.683 -11.236  0.00  0.00    +0.007 C 
ATOM     26  CD2 LEU A   2       2.043  -5.318 -11.403  0.00  0.00    +0.007 C 
ENDBRANCH  23  24
ENDBRANCH  14  23
ENDBRANCH   3  14
TORSDOF 10
ENDMDL
MODEL 13
REMARK VINA RESULT:      -6.3      3.005      6.838
REMARK  Name = LLG_min.pdb
REMARK  14 active torsions:
REMARK  status: ('A' for Active; 'I' for Inactive)
REMARK    1  A    between atoms: N_1  and  CA_2
REMARK    2  A    between atoms: CA_2  and  C_3
REMARK    3  A    between atoms: CA_2  and  CB_5
REMARK    4  A    between atoms: CB_5  and  CG_6
REMARK    5  A    between atoms: CG_6  and  CD1_7
REMARK    6  A    between atoms: CG_6  and  CD2_8
REMARK    7  A    between atoms: N_9  and  CA_10
REMARK    8  A    between atoms: CA_10  and  C_11
REMARK    9  A    between atoms: CA_10  and  CB_13
REMARK   10  A    between atoms: CB_13  and  CG_14
REMARK   11  A    between atoms: CG_14  and  CD1_15
REMARK   12  A    between atoms: CG_14  and  CD2_16
REMARK   13  A    between atoms: N_17  and  CA_18
REMARK   14  A    between atoms: CA_18  and  C_19
REMARK                            x       y       z     vdW  Elec       q    Type
REMARK                         _______ _______ _______ _____ _____    ______ ____
ROOT
ATOM      1  C   LEU A   1       2.826  -3.988 -10.228  0.00  0.00    +0.199 C 
ATOM      2  O   LEU A   1       2.817  -2.931  -9.609  0.00  0.00    -0.278 OA
ATOM      3  N   LEU A   2       2.554  -5.224  -9.646  0.00  0.00    -0.305 N 
ATOM      4  H   LEU A   2       1.875  -5.793 -10.126  0.00  0.00    +0.149 HD
ENDROOT
BRANCH   1   5
ATOM      5  CA  LEU A   1       3.028  -4.015 -11.748  0.00  0.00    +0.013 C 
BRANCH   5   6
ATOM      6  N   LEU A   1       4.403  -3.539 -12.129  0.00  0.00    +0.386 N 
ATOM      7  H   LEU A   1       4.510  -3.705 -13.148  0.00  0.00    -0.089 HD
ATOM      8  H   LEU A   1       5.149  -4.059 -11.657  0.00  0.00    -0.089 HD
ATOM      9  H   LEU A   1       4.529  -2.535 -11.982  0.00  0.00    -0.089 HD
ENDBRANCH   5   6
BRANCH   5  10
ATOM     10  CB  LEU A   1       2.787  -5.448 -12.241  0.00  0.00    -0.004 C 
BRANCH  10  11
ATOM     11  CG  LEU A   1       1.733  -5.628 -13.350  0.00  0.00    -0.018 C 
ATOM     12  CD1 LEU A   1       2.438  -5.832 -14.696  0.00  0.00    +0.007 C 
ATOM     13  CD2 LEU A   1       0.806  -6.814 -13.079  0.00  0.00    +0.007 C 
ENDBRANCH  10  11
ENDBRANCH   5  10
ENDBRANCH   1   5
BRANCH   3  14
ATOM     14  CA  LEU A   2       2.378  -5.230  -8.171  0.00  0.00    +0.159 C 
BRANCH  14  15
ATOM     15  C   LEU A   2       3.244  -6.321  -7.518  0.00  0.00    +0.234 C 
ATOM     16  O   LEU A   2       2.953  -7.506  -7.594  0.00  0.00    -0.274 OA
ATOM     17  N   GLY A   3       4.479  -5.855  -7.075  0.00  0.00    -0.298 N 
ATOM     18  H   GLY A   3       4.420  -4.941  -6.659  0.00  0.00    +0.150 HD
BRANCH  17  19
ATOM     19  CA  GLY A   3       5.290  -6.768  -6.256  0.00  0.00    +0.263 C 
BRANCH  19  20
ATOM     20  C   GLY A   3       6.707  -6.200  -5.964  0.00  0.00    +0.251 C 
ATOM     21  O   GLY A   3       7.425  -6.858  -5.169  0.00  0.00    -0.204 OA
ATOM     22  OXT GLY A   3       6.952  -5.132  -6.641  0.00  0.00    -0.204 OA
ENDBRANCH  19  20
ENDBRANCH  17  19
ENDBRANCH  14  15
BRANCH  14  23
ATOM     23  CB  LEU A   2       0.908  -5.496  -7.813  0.00  0.00    +0.034 C 
BRANCH  23  24
ATOM     24  CG  LEU A   2       0.372  -4.587  -6.688  0.00  0.00    -0.015 C 
ATOM     25  CD1 LEU A   2       0.561  -3.104  -7.010  0.00  0.00    +0.007 C 
ATOM     26  CD2 LEU A   2      -1.101  -4.891  -6.412  0.00  0.00    +0.007 C 
ENDBRANCH  23  24
ENDBRANCH  14  23
ENDBRANCH   3  14
TORSDOF 10
ENDMDL
MODEL 14
REMARK VINA RESULT:      -6.3      2.424      3.632
REMARK  Name = LLG_min.pdb
REMARK  14 active torsions:
REMARK  status: ('A' for Active; 'I' for Inactive)
REMARK    1  A    between atoms: N_1  and  CA_2
REMARK    2  A    between atoms: CA_2  and  C_3
REMARK    3  A    between atoms: CA_2  and  CB_5
REMARK    4  A    between atoms: CB_5  and  CG_6
REMARK    5  A    between atoms: CG_6  and  CD1_7
REMARK    6  A    between atoms: CG_6  and  CD2_8
REMARK    7  A    between atoms: N_9  and  CA_10
REMARK    8  A    between atoms: CA_10  and  C_11
REMARK    9  A    between atoms: CA_10  and  CB_13
REMARK   10  A    between atoms: CB_13  and  CG_14
REMARK   11  A    between atoms: CG_14  and  CD1_15
REMARK   12  A    between atoms: CG_14  and  CD2_16
REMARK   13  A    between atoms: N_17  and  CA_18
REMARK   14  A    between atoms: CA_18  and  C_19
REMARK                            x       y       z     vdW  Elec       q    Type
REMARK                         _______ _______ _______ _____ _____    ______ ____
ROOT
ATOM      1  C   LEU A   1       2.042  -4.916  -7.505  0.00  0.00    +0.199 C 
ATOM      2  O   LEU A   1       3.236  -4.673  -7.380  0.00  0.00    -0.278 OA
ATOM      3  N   LEU A   2       1.537  -5.863  -8.393  0.00  0.00    -0.305 N 
ATOM      4  H   LEU A   2       0.883  -6.522  -8.002  0.00  0.00    +0.149 HD
ENDROOT
BRANCH   1   5
ATOM      5  CA  LEU A   1       1.000  -4.262  -6.588  0.00  0.00    +0.013 C 
BRANCH   5   6
ATOM      6  N   LEU A   1       0.971  -2.769  -6.765  0.00  0.00    +0.386 N 
ATOM      7  H   LEU A   1       1.535  -2.551  -7.609  0.00  0.00    -0.089 HD
ATOM      8  H   LEU A   1       1.396  -2.266  -5.979  0.00  0.00    -0.089 HD
ATOM      9  H   LEU A   1       0.031  -2.410  -6.942  0.00  0.00    -0.089 HD
ENDBRANCH   5   6
BRANCH   5  10
ATOM     10  CB  LEU A   1      -0.371  -4.878  -6.900  0.00  0.00    -0.004 C 
BRANCH  10  11
ATOM     11  CG  LEU A   1      -1.506  -4.575  -5.904  0.00  0.00    -0.018 C 
ATOM     12  CD1 LEU A   1      -2.666  -3.900  -6.644  0.00  0.00    +0.007 C 
ATOM     13  CD2 LEU A   1      -2.016  -5.837  -5.208  0.00  0.00    +0.007 C 
ENDBRANCH  10  11
ENDBRANCH   5  10
ENDBRANCH   1   5
BRANCH   3  14
ATOM     14  CA  LEU A   2       2.521  -6.494  -9.308  0.00  0.00    +0.159 C 
BRANCH  14  15
ATOM     15  C   LEU A   2       2.605  -5.727 -10.640  0.00  0.00    +0.234 C 
ATOM     16  O   LEU A   2       1.700  -5.762 -11.461  0.00  0.00    -0.274 OA
ATOM     17  N   GLY A   3       3.661  -4.821 -10.689  0.00  0.00    -0.298 N 
ATOM     18  H   GLY A   3       4.497  -5.179 -10.260  0.00  0.00    +0.150 HD
BRANCH  17  19
ATOM     19  CA  GLY A   3       3.949  -4.194 -11.988  0.00  0.00    +0.263 C 
BRANCH  19  20
ATOM     20  C   GLY A   3       5.446  -3.803 -12.137  0.00  0.00    +0.251 C 
ATOM     21  O   GLY A   3       6.228  -4.219 -11.245  0.00  0.00    -0.204 OA
ATOM     22  OXT GLY A   3       5.668  -3.130 -13.212  0.00  0.00    -0.204 OA
ENDBRANCH  19  20
ENDBRANCH  17  19
ENDBRANCH  14  15
BRANCH  14  23
ATOM     23  CB  LEU A   2       2.114  -7.945  -9.607  0.00  0.00    +0.034 C 
BRANCH  23  24
ATOM     24  CG  LEU A   2       2.124  -8.859  -8.364  0.00  0.00    -0.015 C 
ATOM     25  CD1 LEU A   2       1.966 -10.334  -8.735  0.00  0.00    +0.007 C 
ATOM     26  CD2 LEU A   2       3.402  -8.644  -7.553  0.00  0.00    +0.007 C 
ENDBRANCH  23  24
ENDBRANCH  14  23
ENDBRANCH   3  14
TORSDOF 10
ENDMDL
MODEL 15
REMARK VINA RESULT:      -6.1      2.316      3.292
REMARK  Name = LLG_min.pdb
REMARK  14 active torsions:
REMARK  status: ('A' for Active; 'I' for Inactive)
REMARK    1  A    between atoms: N_1  and  CA_2
REMARK    2  A    between atoms: CA_2  and  C_3
REMARK    3  A    between atoms: CA_2  and  CB_5
REMARK    4  A    between atoms: CB_5  and  CG_6
REMARK    5  A    between atoms: CG_6  and  CD1_7
REMARK    6  A    between atoms: CG_6  and  CD2_8
REMARK    7  A    between atoms: N_9  and  CA_10
REMARK    8  A    between atoms: CA_10  and  C_11
REMARK    9  A    between atoms: CA_10  and  CB_13
REMARK   10  A    between atoms: CB_13  and  CG_14
REMARK   11  A    between atoms: CG_14  and  CD1_15
REMARK   12  A    between atoms: CG_14  and  CD2_16
REMARK   13  A    between atoms: N_17  and  CA_18
REMARK   14  A    between atoms: CA_18  and  C_19
REMARK                            x       y       z     vdW  Elec       q    Type
REMARK                         _______ _______ _______ _____ _____    ______ ____
ROOT
ATOM      1  C   LEU A   1       1.995  -4.374  -7.735  0.00  0.00    +0.199 C 
ATOM      2  O   LEU A   1       2.671  -3.497  -8.260  0.00  0.00    -0.278 OA
ATOM      3  N   LEU A   2       2.153  -5.731  -8.002  0.00  0.00    -0.305 N 
ATOM      4  H   LEU A   2       2.233  -6.328  -7.194  0.00  0.00    +0.149 HD
ENDROOT
BRANCH   1   5
ATOM      5  CA  LEU A   1       0.981  -4.039  -6.635  0.00  0.00    +0.013 C 
BRANCH   5   6
ATOM      6  N   LEU A   1       0.791  -2.554  -6.494  0.00  0.00    +0.386 N 
ATOM      7  H   LEU A   1      -0.087  -2.409  -5.959  0.00  0.00    -0.089 HD
ATOM      8  H   LEU A   1       0.679  -2.080  -7.395  0.00  0.00    -0.089 HD
ATOM      9  H   LEU A   1       1.537  -2.109  -5.956  0.00  0.00    -0.089 HD
ENDBRANCH   5   6
BRANCH   5  10
ATOM     10  CB  LEU A   1      -0.346  -4.732  -6.975  0.00  0.00    -0.004 C 
BRANCH  10  11
ATOM     11  CG  LEU A   1      -1.512  -4.510  -5.994  0.00  0.00    -0.018 C 
ATOM     12  CD1 LEU A   1      -2.727  -3.974  -6.760  0.00  0.00    +0.007 C 
ATOM     13  CD2 LEU A   1      -1.902  -5.792  -5.258  0.00  0.00    +0.007 C 
ENDBRANCH  10  11
ENDBRANCH   5  10
ENDBRANCH   1   5
BRANCH   3  14
ATOM     14  CA  LEU A   2       3.112  -6.081  -9.080  0.00  0.00    +0.159 C 
BRANCH  14  15
ATOM     15  C   LEU A   2       2.373  -6.592 -10.329  0.00  0.00    +0.234 C 
ATOM     16  O   LEU A   2       1.695  -5.850 -11.026  0.00  0.00    -0.274 OA
ATOM     17  N   GLY A   3       2.756  -7.876 -10.711  0.00  0.00    -0.298 N 
ATOM     18  H   GLY A   3       2.898  -8.486  -9.923  0.00  0.00    +0.150 HD
BRANCH  17  19
ATOM     19  CA  GLY A   3       1.964  -8.530 -11.763  0.00  0.00    +0.263 C 
BRANCH  19  20
ATOM     20  C   GLY A   3       0.879  -9.479 -11.182  0.00  0.00    +0.251 C 
ATOM     21  O   GLY A   3       1.198 -10.144 -10.164  0.00  0.00    -0.204 OA
ATOM     22  OXT GLY A   3      -0.233  -9.400 -11.829  0.00  0.00    -0.204 OA
ENDBRANCH  19  20
ENDBRANCH  17  19
ENDBRANCH  14  15
BRANCH  14  23
ATOM     23  CB  LEU A   2       4.073  -7.180  -8.600  0.00  0.00    +0.034 C 
BRANCH  23  24
ATOM     24  CG  LEU A   2       3.680  -7.795  -7.242  0.00  0.00    -0.015 C 
ATOM     25  CD1 LEU A   2       3.342  -9.283  -7.362  0.00  0.00    +0.007 C 
ATOM     26  CD2 LEU A   2       4.791  -7.580  -6.215  0.00  0.00    +0.007 C 
ENDBRANCH  23  24
ENDBRANCH  14  23
ENDBRANCH   3  14
TORSDOF 10
ENDMDL
MODEL 16
REMARK VINA RESULT:      -6.1      2.524      4.300
REMARK  Name = LLG_min.pdb
REMARK  14 active torsions:
REMARK  status: ('A' for Active; 'I' for Inactive)
REMARK    1  A    between atoms: N_1  and  CA_2
REMARK    2  A    between atoms: CA_2  and  C_3
REMARK    3  A    between atoms: CA_2  and  CB_5
REMARK    4  A    between atoms: CB_5  and  CG_6
REMARK    5  A    between atoms: CG_6  and  CD1_7
REMARK    6  A    between atoms: CG_6  and  CD2_8
REMARK    7  A    between atoms: N_9  and  CA_10
REMARK    8  A    between atoms: CA_10  and  C_11
REMARK    9  A    between atoms: CA_10  and  CB_13
REMARK   10  A    between atoms: CB_13  and  CG_14
REMARK   11  A    between atoms: CG_14  and  CD1_15
REMARK   12  A    between atoms: CG_14  and  CD2_16
REMARK   13  A    between atoms: N_17  and  CA_18
REMARK   14  A    between atoms: CA_18  and  C_19
REMARK                            x       y       z     vdW  Elec       q    Type
REMARK                         _______ _______ _______ _____ _____    ______ ____
ROOT
ATOM      1  C   LEU A   1       1.929  -4.312  -7.714  0.00  0.00    +0.199 C 
ATOM      2  O   LEU A   1       3.087  -3.921  -7.627  0.00  0.00    -0.278 OA
ATOM      3  N   LEU A   2       1.469  -5.135  -8.739  0.00  0.00    -0.305 N 
ATOM      4  H   LEU A   2       0.951  -5.948  -8.447  0.00  0.00    +0.149 HD
ENDROOT
BRANCH   1   5
ATOM      5  CA  LEU A   1       0.906  -4.012  -6.611  0.00  0.00    +0.013 C 
BRANCH   5   6
ATOM      6  N   LEU A   1       0.677  -2.533  -6.460  0.00  0.00    +0.386 N 
ATOM      7  H   LEU A   1       0.261  -2.198  -7.349  0.00  0.00    -0.089 HD
ATOM      8  H   LEU A   1       1.546  -2.009  -6.315  0.00  0.00    -0.089 HD
ATOM      9  H   LEU A   1       0.007  -2.311  -5.721  0.00  0.00    -0.089 HD
ENDBRANCH   5   6
BRANCH   5  10
ATOM     10  CB  LEU A   1      -0.402  -4.737  -6.956  0.00  0.00    -0.004 C 
BRANCH  10  11
ATOM     11  CG  LEU A   1      -1.577  -4.542  -5.981  0.00  0.00    -0.018 C 
ATOM     12  CD1 LEU A   1      -2.794  -4.011  -6.748  0.00  0.00    +0.007 C 
ATOM     13  CD2 LEU A   1      -1.956  -5.839  -5.265  0.00  0.00    +0.007 C 
ENDBRANCH  10  11
ENDBRANCH   5  10
ENDBRANCH   1   5
BRANCH   3  14
ATOM     14  CA  LEU A   2       2.432  -5.422  -9.832  0.00  0.00    +0.159 C 
BRANCH  14  15
ATOM     15  C   LEU A   2       3.606  -6.276  -9.322  0.00  0.00    +0.234 C 
ATOM     16  O   LEU A   2       3.521  -7.492  -9.221  0.00  0.00    -0.274 OA
ATOM     17  N   GLY A   3       4.806  -5.575  -9.240  0.00  0.00    -0.298 N 
ATOM     18  H   GLY A   3       4.681  -4.636  -8.902  0.00  0.00    +0.150 HD
BRANCH  17  19
ATOM     19  CA  GLY A   3       5.932  -6.242  -8.571  0.00  0.00    +0.263 C 
BRANCH  19  20
ATOM     20  C   GLY A   3       6.086  -5.800  -7.089  0.00  0.00    +0.251 C 
ATOM     21  O   GLY A   3       5.387  -6.413  -6.243  0.00  0.00    -0.204 OA
ATOM     22  OXT GLY A   3       6.971  -4.874  -6.948  0.00  0.00    -0.204 OA
ENDBRANCH  19  20
ENDBRANCH  17  19
ENDBRANCH  14  15
BRANCH  14  23
ATOM     23  CB  LEU A   2       2.997  -4.111 -10.400  0.00  0.00    +0.034 C 
BRANCH  23  24
ATOM     24  CG  LEU A   2       3.064  -4.082 -11.941  0.00  0.00    -0.015 C 
ATOM     25  CD1 LEU A   2       4.506  -4.098 -12.453  0.00  0.00    +0.007 C 
ATOM     26  CD2 LEU A   2       2.273  -5.250 -12.532  0.00  0.00    +0.007 C 
ENDBRANCH  23  24
ENDBRANCH  14  23
ENDBRANCH   3  14
TORSDOF 10
ENDMDL
MODEL 17
REMARK VINA RESULT:      -6.1      2.666      6.825
REMARK  Name = LLG_min.pdb
REMARK  14 active torsions:
REMARK  status: ('A' for Active; 'I' for Inactive)
REMARK    1  A    between atoms: N_1  and  CA_2
REMARK    2  A    between atoms: CA_2  and  C_3
REMARK    3  A    between atoms: CA_2  and  CB_5
REMARK    4  A    between atoms: CB_5  and  CG_6
REMARK    5  A    between atoms: CG_6  and  CD1_7
REMARK    6  A    between atoms: CG_6  and  CD2_8
REMARK    7  A    between atoms: N_9  and  CA_10
REMARK    8  A    between atoms: CA_10  and  C_11
REMARK    9  A    between atoms: CA_10  and  CB_13
REMARK   10  A    between atoms: CB_13  and  CG_14
REMARK   11  A    between atoms: CG_14  and  CD1_15
REMARK   12  A    between atoms: CG_14  and  CD2_16
REMARK   13  A    between atoms: N_17  and  CA_18
REMARK   14  A    between atoms: CA_18  and  C_19
REMARK                            x       y       z     vdW  Elec       q    Type
REMARK                         _______ _______ _______ _____ _____    ______ ____
ROOT
ATOM      1  C   LEU A   1       2.197  -5.726 -10.497  0.00  0.00    +0.199 C 
ATOM      2  O   LEU A   1       1.350  -6.604 -10.384  0.00  0.00    -0.278 OA
ATOM      3  N   LEU A   2       2.758  -5.053  -9.414  0.00  0.00    -0.305 N 
ATOM      4  H   LEU A   2       3.765  -5.006  -9.405  0.00  0.00    +0.149 HD
ENDROOT
BRANCH   1   5
ATOM      5  CA  LEU A   1       2.798  -5.376 -11.864  0.00  0.00    +0.013 C 
BRANCH   5   6
ATOM      6  N   LEU A   1       1.754  -5.400 -12.947  0.00  0.00    +0.386 N 
ATOM      7  H   LEU A   1       0.833  -5.273 -12.485  0.00  0.00    -0.089 HD
ATOM      8  H   LEU A   1       1.721  -6.294 -13.448  0.00  0.00    -0.089 HD
ATOM      9  H   LEU A   1       1.856  -4.631 -13.612  0.00  0.00    -0.089 HD
ENDBRANCH   5   6
BRANCH   5  10
ATOM     10  CB  LEU A   1       3.451  -3.991 -11.763  0.00  0.00    -0.004 C 
BRANCH  10  11
ATOM     11  CG  LEU A   1       4.916  -3.883 -12.227  0.00  0.00    -0.018 C 
ATOM     12  CD1 LEU A   1       5.839  -4.420 -11.127  0.00  0.00    +0.007 C 
ATOM     13  CD2 LEU A   1       5.170  -4.653 -13.523  0.00  0.00    +0.007 C 
ENDBRANCH  10  11
ENDBRANCH   5  10
ENDBRANCH   1   5
BRANCH   3  14
ATOM     14  CA  LEU A   2       2.178  -5.356  -8.082  0.00  0.00    +0.159 C 
BRANCH  14  15
ATOM     15  C   LEU A   2       1.281  -4.204  -7.597  0.00  0.00    +0.234 C 
ATOM     16  O   LEU A   2       1.717  -3.073  -7.435  0.00  0.00    -0.274 OA
ATOM     17  N   GLY A   3      -0.076  -4.515  -7.613  0.00  0.00    -0.298 N 
ATOM     18  H   GLY A   3      -0.259  -5.458  -7.313  0.00  0.00    +0.150 HD
BRANCH  17  19
ATOM     19  CA  GLY A   3      -0.994  -3.560  -6.977  0.00  0.00    +0.263 C 
BRANCH  19  20
ATOM     20  C   GLY A   3      -2.308  -4.234  -6.493  0.00  0.00    +0.251 C 
ATOM     21  O   GLY A   3      -3.378  -3.810  -6.998  0.00  0.00    -0.204 OA
ATOM     22  OXT GLY A   3      -2.085  -5.188  -5.655  0.00  0.00    -0.204 OA
ENDBRANCH  19  20
ENDBRANCH  17  19
ENDBRANCH  14  15
BRANCH  14  23
ATOM     23  CB  LEU A   2       3.297  -5.568  -7.051  0.00  0.00    +0.034 C 
BRANCH  23  24
ATOM     24  CG  LEU A   2       4.000  -6.936  -7.173  0.00  0.00    -0.015 C 
ATOM     25  CD1 LEU A   2       4.752  -7.312  -5.896  0.00  0.00    +0.007 C 
ATOM     26  CD2 LEU A   2       2.991  -8.024  -7.540  0.00  0.00    +0.007 C 
ENDBRANCH  23  24
ENDBRANCH  14  23
ENDBRANCH   3  14
TORSDOF 10
ENDMDL
MODEL 18
REMARK VINA RESULT:      -6.0      2.920      5.953
REMARK  Name = LLG_min.pdb
REMARK  14 active torsions:
REMARK  status: ('A' for Active; 'I' for Inactive)
REMARK    1  A    between atoms: N_1  and  CA_2
REMARK    2  A    between atoms: CA_2  and  C_3
REMARK    3  A    between atoms: CA_2  and  CB_5
REMARK    4  A    between atoms: CB_5  and  CG_6
REMARK    5  A    between atoms: CG_6  and  CD1_7
REMARK    6  A    between atoms: CG_6  and  CD2_8
REMARK    7  A    between atoms: N_9  and  CA_10
REMARK    8  A    between atoms: CA_10  and  C_11
REMARK    9  A    between atoms: CA_10  and  CB_13
REMARK   10  A    between atoms: CB_13  and  CG_14
REMARK   11  A    between atoms: CG_14  and  CD1_15
REMARK   12  A    between atoms: CG_14  and  CD2_16
REMARK   13  A    between atoms: N_17  and  CA_18
REMARK   14  A    between atoms: CA_18  and  C_19
REMARK                            x       y       z     vdW  Elec       q    Type
REMARK                         _______ _______ _______ _____ _____    ______ ____
ROOT
ATOM      1  C   LEU A   1       4.621  -5.088  -9.051  0.00  0.00    +0.199 C 
ATOM      2  O   LEU A   1       4.129  -3.978  -8.888  0.00  0.00    -0.278 OA
ATOM      3  N   LEU A   2       3.949  -6.148  -9.655  0.00  0.00    -0.305 N 
ATOM      4  H   LEU A   2       4.452  -6.622 -10.389  0.00  0.00    +0.149 HD
ENDROOT
BRANCH   1   5
ATOM      5  CA  LEU A   1       6.088  -5.363  -8.698  0.00  0.00    +0.013 C 
BRANCH   5   6
ATOM      6  N   LEU A   1       6.708  -4.199  -7.975  0.00  0.00    +0.386 N 
ATOM      7  H   LEU A   1       6.171  -4.066  -7.097  0.00  0.00    -0.089 HD
ATOM      8  H   LEU A   1       6.646  -3.323  -8.504  0.00  0.00    -0.089 HD
ATOM      9  H   LEU A   1       7.677  -4.374  -7.702  0.00  0.00    -0.089 HD
ENDBRANCH   5   6
BRANCH   5  10
ATOM     10  CB  LEU A   1       6.147  -6.635  -7.841  0.00  0.00    -0.004 C 
BRANCH  10  11
ATOM     11  CG  LEU A   1       5.761  -6.487  -6.358  0.00  0.00    -0.018 C 
ATOM     12  CD1 LEU A   1       4.551  -7.378  -6.055  0.00  0.00    +0.007 C 
ATOM     13  CD2 LEU A   1       6.910  -6.858  -5.421  0.00  0.00    +0.007 C 
ENDBRANCH  10  11
ENDBRANCH   5  10
ENDBRANCH   1   5
BRANCH   3  14
ATOM     14  CA  LEU A   2       2.520  -5.916  -9.986  0.00  0.00    +0.159 C 
BRANCH  14  15
ATOM     15  C   LEU A   2       1.630  -6.105  -8.745  0.00  0.00    +0.234 C 
ATOM     16  O   LEU A   2       1.626  -7.148  -8.108  0.00  0.00    -0.274 OA
ATOM     17  N   GLY A   3       1.053  -4.920  -8.294  0.00  0.00    -0.298 N 
ATOM     18  H   GLY A   3       0.749  -4.328  -9.047  0.00  0.00    +0.150 HD
BRANCH  17  19
ATOM     19  CA  GLY A   3       0.028  -5.028  -7.245  0.00  0.00    +0.263 C 
BRANCH  19  20
ATOM     20  C   GLY A   3      -0.363  -3.644  -6.656  0.00  0.00    +0.251 C 
ATOM     21  O   GLY A   3      -1.572  -3.481  -6.354  0.00  0.00    -0.204 OA
ATOM     22  OXT GLY A   3       0.657  -2.868  -6.521  0.00  0.00    -0.204 OA
ENDBRANCH  19  20
ENDBRANCH  17  19
ENDBRANCH  14  15
BRANCH  14  23
ATOM     23  CB  LEU A   2       2.059  -6.902 -11.070  0.00  0.00    +0.034 C 
BRANCH  23  24
ATOM     24  CG  LEU A   2       1.366  -6.222 -12.269  0.00  0.00    -0.015 C 
ATOM     25  CD1 LEU A   2       2.325  -5.324 -13.052  0.00  0.00    +0.007 C 
ATOM     26  CD2 LEU A   2       0.743  -7.271 -13.191  0.00  0.00    +0.007 C 
ENDBRANCH  23  24
ENDBRANCH  14  23
ENDBRANCH   3  14
TORSDOF 10
ENDMDL
MODEL 19
REMARK VINA RESULT:      -6.0      2.539      6.350
REMARK  Name = LLG_min.pdb
REMARK  14 active torsions:
REMARK  status: ('A' for Active; 'I' for Inactive)
REMARK    1  A    between atoms: N_1  and  CA_2
REMARK    2  A    between atoms: CA_2  and  C_3
REMARK    3  A    between atoms: CA_2  and  CB_5
REMARK    4  A    between atoms: CB_5  and  CG_6
REMARK    5  A    between atoms: CG_6  and  CD1_7
REMARK    6  A    between atoms: CG_6  and  CD2_8
REMARK    7  A    between atoms: N_9  and  CA_10
REMARK    8  A    between atoms: CA_10  and  C_11
REMARK    9  A    between atoms: CA_10  and  CB_13
REMARK   10  A    between atoms: CB_13  and  CG_14
REMARK   11  A    between atoms: CG_14  and  CD1_15
REMARK   12  A    between atoms: CG_14  and  CD2_16
REMARK   13  A    between atoms: N_17  and  CA_18
REMARK   14  A    between atoms: CA_18  and  C_19
REMARK                            x       y       z     vdW  Elec       q    Type
REMARK                         _______ _______ _______ _____ _____    ______ ____
ROOT
ATOM      1  C   LEU A   1       1.690  -6.396 -10.157  0.00  0.00    +0.199 C 
ATOM      2  O   LEU A   1       2.171  -7.420  -9.688  0.00  0.00    -0.278 OA
ATOM      3  N   LEU A   2       1.590  -5.198  -9.453  0.00  0.00    -0.305 N 
ATOM      4  H   LEU A   2       1.938  -4.381  -9.930  0.00  0.00    +0.149 HD
ENDROOT
BRANCH   1   5
ATOM      5  CA  LEU A   1       1.259  -6.325 -11.627  0.00  0.00    +0.013 C 
BRANCH   5   6
ATOM      6  N   LEU A   1       1.979  -5.226 -12.360  0.00  0.00    +0.386 N 
ATOM      7  H   LEU A   1       1.260  -4.545 -12.669  0.00  0.00    -0.089 HD
ATOM      8  H   LEU A   1       2.462  -5.559 -13.201  0.00  0.00    -0.089 HD
ATOM      9  H   LEU A   1       2.631  -4.714 -11.763  0.00  0.00    -0.089 HD
ENDBRANCH   5   6
BRANCH   5  10
ATOM     10  CB  LEU A   1       1.533  -7.688 -12.276  0.00  0.00    -0.004 C 
BRANCH  10  11
ATOM     11  CG  LEU A   1       0.305  -8.569 -12.577  0.00  0.00    -0.018 C 
ATOM     12  CD1 LEU A   1       0.393  -9.092 -14.015  0.00  0.00    +0.007 C 
ATOM     13  CD2 LEU A   1       0.191  -9.751 -11.614  0.00  0.00    +0.007 C 
ENDBRANCH  10  11
ENDBRANCH   5  10
ENDBRANCH   1   5
BRANCH   3  14
ATOM     14  CA  LEU A   2       1.979  -5.245  -8.021  0.00  0.00    +0.159 C 
BRANCH  14  15
ATOM     15  C   LEU A   2       0.953  -4.503  -7.147  0.00  0.00    +0.234 C 
ATOM     16  O   LEU A   2       1.269  -3.546  -6.454  0.00  0.00    -0.274 OA
ATOM     17  N   GLY A   3      -0.365  -4.859  -7.421  0.00  0.00    -0.298 N 
ATOM     18  H   GLY A   3      -0.470  -5.844  -7.596  0.00  0.00    +0.150 HD
BRANCH  17  19
ATOM     19  CA  GLY A   3      -1.401  -4.363  -6.503  0.00  0.00    +0.263 C 
BRANCH  19  20
ATOM     20  C   GLY A   3      -2.142  -3.118  -7.065  0.00  0.00    +0.251 C 
ATOM     21  O   GLY A   3      -2.981  -3.325  -7.977  0.00  0.00    -0.204 OA
ATOM     22  OXT GLY A   3      -1.803  -2.034  -6.455  0.00  0.00    -0.204 OA
ENDBRANCH  19  20
ENDBRANCH  17  19
ENDBRANCH  14  15
BRANCH  14  23
ATOM     23  CB  LEU A   2       3.353  -4.586  -7.822  0.00  0.00    +0.034 C 
BRANCH  23  24
ATOM     24  CG  LEU A   2       4.475  -5.588  -7.478  0.00  0.00    -0.015 C 
ATOM     25  CD1 LEU A   2       3.940  -6.817  -6.741  0.00  0.00    +0.007 C 
ATOM     26  CD2 LEU A   2       5.225  -6.006  -8.743  0.00  0.00    +0.007 C 
ENDBRANCH  23  24
ENDBRANCH  14  23
ENDBRANCH   3  14
TORSDOF 10
ENDMDL
MODEL 20
REMARK VINA RESULT:      -5.8      3.549      4.959
REMARK  Name = LLG_min.pdb
REMARK  14 active torsions:
REMARK  status: ('A' for Active; 'I' for Inactive)
REMARK    1  A    between atoms: N_1  and  CA_2
REMARK    2  A    between atoms: CA_2  and  C_3
REMARK    3  A    between atoms: CA_2  and  CB_5
REMARK    4  A    between atoms: CB_5  and  CG_6
REMARK    5  A    between atoms: CG_6  and  CD1_7
REMARK    6  A    between atoms: CG_6  and  CD2_8
REMARK    7  A    between atoms: N_9  and  CA_10
REMARK    8  A    between atoms: CA_10  and  C_11
REMARK    9  A    between atoms: CA_10  and  CB_13
REMARK   10  A    between atoms: CB_13  and  CG_14
REMARK   11  A    between atoms: CG_14  and  CD1_15
REMARK   12  A    between atoms: CG_14  and  CD2_16
REMARK   13  A    between atoms: N_17  and  CA_18
REMARK   14  A    between atoms: CA_18  and  C_19
REMARK                            x       y       z     vdW  Elec       q    Type
REMARK                         _______ _______ _______ _____ _____    ______ ____
ROOT
ATOM      1  C   LEU A   1       2.519  -4.822  -7.019  0.00  0.00    +0.199 C 
ATOM      2  O   LEU A   1       2.591  -4.839  -5.796  0.00  0.00    -0.278 OA
ATOM      3  N   LEU A   2       3.522  -5.304  -7.857  0.00  0.00    -0.305 N 
ATOM      4  H   LEU A   2       3.220  -5.939  -8.578  0.00  0.00    +0.149 HD
ENDROOT
BRANCH   1   5
ATOM      5  CA  LEU A   1       1.240  -4.363  -7.731  0.00  0.00    +0.013 C 
BRANCH   5   6
ATOM      6  N   LEU A   1       0.655  -5.462  -8.575  0.00  0.00    +0.386 N 
ATOM      7  H   LEU A   1       1.402  -6.170  -8.713  0.00  0.00    -0.089 HD
ATOM      8  H   LEU A   1       0.367  -5.140  -9.504  0.00  0.00    -0.089 HD
ATOM      9  H   LEU A   1      -0.121  -5.943  -8.115  0.00  0.00    -0.089 HD
ENDBRANCH   5   6
BRANCH   5  10
ATOM     10  CB  LEU A   1       0.238  -3.896  -6.667  0.00  0.00    -0.004 C 
BRANCH  10  11
ATOM     11  CG  LEU A   1      -1.206  -4.416  -6.803  0.00  0.00    -0.018 C 
ATOM     12  CD1 LEU A   1      -1.575  -5.226  -5.555  0.00  0.00    +0.007 C 
ATOM     13  CD2 LEU A   1      -2.214  -3.282  -6.987  0.00  0.00    +0.007 C 
ENDBRANCH  10  11
ENDBRANCH   5  10
ENDBRANCH   1   5
BRANCH   3  14
ATOM     14  CA  LEU A   2       4.780  -5.732  -7.195  0.00  0.00    +0.159 C 
BRANCH  14  15
ATOM     15  C   LEU A   2       6.002  -5.062  -7.848  0.00  0.00    +0.234 C 
ATOM     16  O   LEU A   2       6.980  -4.730  -7.194  0.00  0.00    -0.274 OA
ATOM     17  N   GLY A   3       5.981  -5.113  -9.239  0.00  0.00    -0.298 N 
ATOM     18  H   GLY A   3       5.061  -4.962  -9.617  0.00  0.00    +0.150 HD
BRANCH  17  19
ATOM     19  CA  GLY A   3       6.993  -4.323  -9.957  0.00  0.00    +0.263 C 
BRANCH  19  20
ATOM     20  C   GLY A   3       6.793  -4.364 -11.497  0.00  0.00    +0.251 C 
ATOM     21  O   GLY A   3       7.507  -3.588 -12.179  0.00  0.00    -0.204 OA
ATOM     22  OXT GLY A   3       5.928  -5.252 -11.851  0.00  0.00    -0.204 OA
ENDBRANCH  19  20
ENDBRANCH  17  19
ENDBRANCH  14  15
BRANCH  14  23
ATOM     23  CB  LEU A   2       4.945  -7.256  -7.304  0.00  0.00    +0.034 C 
BRANCH  23  24
ATOM     24  CG  LEU A   2       5.455  -7.917  -6.006  0.00  0.00    -0.015 C 
ATOM     25  CD1 LEU A   2       6.926  -8.323  -6.109  0.00  0.00    +0.007 C 
ATOM     26  CD2 LEU A   2       5.239  -6.987  -4.812  0.00  0.00    +0.007 C 
ENDBRANCH  23  24
ENDBRANCH  14  23
ENDBRANCH   3  14
TORSDOF 10
ENDMDL
