MODEL 1
REMARK VINA RESULT:      -8.1      0.000      0.000
REMARK  Name = LLL-AMC_min.pdb
REMARK  20 active torsions:
REMARK  status: ('A' for Active; 'I' for Inactive)
REMARK    1  A    between atoms: C1_1  and  C2_2
REMARK    2  A    between atoms: C9_11  and  N1_13
REMARK    3  A    between atoms: C11_14  and  C12_16
REMARK    4  A    between atoms: C12_16  and  C13_17
REMARK    5  A    between atoms: C12_16  and  N2_21
REMARK    6  A    between atoms: C13_17  and  C14_18
REMARK    7  A    between atoms: C14_18  and  C15_19
REMARK    8  A    between atoms: C14_18  and  C16_20
REMARK    9  A    between atoms: C17_22  and  C18_24
REMARK   10  A    between atoms: C18_24  and  C19_25
REMARK   11  A    between atoms: C18_24  and  N3_29
REMARK   12  A    between atoms: C19_25  and  C20_26
REMARK   13  A    between atoms: C20_26  and  C21_27
REMARK   14  A    between atoms: C20_26  and  C22_28
REMARK   15  A    between atoms: C23_30  and  C24_32
REMARK   16  A    between atoms: C24_32  and  C25_33
REMARK   17  A    between atoms: C24_32  and  N4_37
REMARK   18  A    between atoms: C25_33  and  C26_34
REMARK   19  A    between atoms: C26_34  and  C27_35
REMARK   20  A    between atoms: C26_34  and  C28_36
REMARK                            x       y       z     vdW  Elec       q    Type
REMARK                         _______ _______ _______ _____ _____    ______ ____
ROOT
ATOM      1  C12 UNL     1       5.138  -5.030  -7.865  0.00  0.00    +0.159 C 
ENDROOT
BRANCH   1   3
ATOM      2  N1  UNL     1       5.331  -5.182 -10.328  0.00  0.00    -0.284 N 
ATOM      3  C11 UNL     1       5.924  -4.719  -9.159  0.00  0.00    +0.238 C 
ATOM      4  O3  UNL     1       6.974  -4.075  -9.108  0.00  0.00    -0.273 OA
ATOM      5  H8  UNL     1       4.357  -5.460 -10.288  0.00  0.00    +0.155 HD
BRANCH   2  16
ATOM      6  C1  UNL     1       8.528  -6.310 -16.047  0.00  0.00    +0.045 C 
ATOM      7  C2  UNL     1       7.865  -5.098 -15.460  0.00  0.00    -0.033 A 
ATOM      8  C3  UNL     1       7.867  -3.917 -16.096  0.00  0.00    +0.096 A 
ATOM      9  C4  UNL     1       7.230  -2.707 -15.558  0.00  0.00    +0.337 A 
ATOM     10  O1  UNL     1       7.275  -1.649 -16.176  0.00  0.00    -0.245 OA
ATOM     11  O2  UNL     1       6.582  -2.826 -14.339  0.00  0.00    -0.422 OA
ATOM     12  C5  UNL     1       6.576  -4.045 -13.629  0.00  0.00    +0.141 A 
ATOM     13  C6  UNL     1       7.202  -5.179 -14.150  0.00  0.00    +0.021 A 
ATOM     14  C7  UNL     1       7.169  -6.341 -13.379  0.00  0.00    +0.013 A 
ATOM     15  C8  UNL     1       6.560  -6.345 -12.117  0.00  0.00    +0.024 A 
ATOM     16  C9  UNL     1       5.952  -5.199 -11.599  0.00  0.00    +0.037 A 
ATOM     17  C10 UNL     1       5.932  -4.044 -12.384  0.00  0.00    +0.070 A 
ENDBRANCH   2  16
ENDBRANCH   1   3
BRANCH   1  18
ATOM     18  N2  UNL     1       3.765  -5.325  -8.269  0.00  0.00    -0.302 N 
ATOM     19  C17 UNL     1       2.791  -4.348  -8.253  0.00  0.00    +0.234 C 
ATOM     20  O4  UNL     1       3.029  -3.192  -7.913  0.00  0.00    -0.274 OA
ATOM     21  H19 UNL     1       3.617  -6.156  -8.819  0.00  0.00    +0.150 HD
BRANCH  19  22
ATOM     22  C18 UNL     1       1.385  -4.822  -8.700  0.00  0.00    +0.159 C 
BRANCH  22  23
ATOM     23  N3  UNL     1       1.484  -5.701  -9.867  0.00  0.00    -0.303 N 
ATOM     24  C23 UNL     1       2.074  -5.247 -11.032  0.00  0.00    +0.230 C 
ATOM     25  O5  UNL     1       2.464  -4.089 -11.165  0.00  0.00    -0.274 OA
ATOM     26  H30 UNL     1       1.113  -6.638  -9.830  0.00  0.00    +0.149 HD
BRANCH  24  27
ATOM     27  C24 UNL     1       2.229  -6.295 -12.158  0.00  0.00    +0.138 C 
BRANCH  27  28
ATOM     28  N4  UNL     1       1.952  -7.645 -11.629  0.00  0.00    -0.320 NA
ATOM     29  H41 UNL     1       1.007  -7.643 -11.238  0.00  0.00    +0.119 HD
ATOM     30  H42 UNL     1       1.925  -8.324 -12.384  0.00  0.00    +0.119 HD
ENDBRANCH  27  28
BRANCH  27  31
ATOM     31  C25 UNL     1       1.344  -5.955 -13.367  0.00  0.00    +0.031 C 
BRANCH  31  32
ATOM     32  C26 UNL     1       2.078  -5.995 -14.728  0.00  0.00    -0.015 C 
ATOM     33  C27 UNL     1       3.599  -5.935 -14.604  0.00  0.00    +0.007 C 
ATOM     34  C28 UNL     1       1.680  -7.260 -15.495  0.00  0.00    +0.007 C 
ENDBRANCH  31  32
ENDBRANCH  27  31
ENDBRANCH  24  27
ENDBRANCH  22  23
BRANCH  22  35
ATOM     35  C19 UNL     1       0.551  -5.438  -7.560  0.00  0.00    +0.034 C 
BRANCH  35  36
ATOM     36  C20 UNL     1      -0.212  -4.523  -6.570  0.00  0.00    -0.015 C 
ATOM     37  C21 UNL     1      -1.449  -5.187  -5.964  0.00  0.00    +0.007 C 
ATOM     38  C22 UNL     1      -0.564  -3.146  -7.124  0.00  0.00    +0.007 C 
ENDBRANCH  35  36
ENDBRANCH  22  35
ENDBRANCH  19  22
ENDBRANCH   1  18
BRANCH   1  39
ATOM     39  C13 UNL     1       5.779  -6.237  -7.156  0.00  0.00    +0.034 C 
BRANCH  39  40
ATOM     40  C14 UNL     1       4.893  -7.014  -6.154  0.00  0.00    -0.015 C 
ATOM     41  C15 UNL     1       4.627  -8.452  -6.597  0.00  0.00    +0.007 C 
ATOM     42  C16 UNL     1       5.422  -6.990  -4.719  0.00  0.00    +0.007 C 
ENDBRANCH  39  40
ENDBRANCH   1  39
TORSDOF 13
ENDMDL
MODEL 2
REMARK VINA RESULT:      -7.9      1.722      4.579
REMARK  Name = LLL-AMC_min.pdb
REMARK  20 active torsions:
REMARK  status: ('A' for Active; 'I' for Inactive)
REMARK    1  A    between atoms: C1_1  and  C2_2
REMARK    2  A    between atoms: C9_11  and  N1_13
REMARK    3  A    between atoms: C11_14  and  C12_16
REMARK    4  A    between atoms: C12_16  and  C13_17
REMARK    5  A    between atoms: C12_16  and  N2_21
REMARK    6  A    between atoms: C13_17  and  C14_18
REMARK    7  A    between atoms: C14_18  and  C15_19
REMARK    8  A    between atoms: C14_18  and  C16_20
REMARK    9  A    between atoms: C17_22  and  C18_24
REMARK   10  A    between atoms: C18_24  and  C19_25
REMARK   11  A    between atoms: C18_24  and  N3_29
REMARK   12  A    between atoms: C19_25  and  C20_26
REMARK   13  A    between atoms: C20_26  and  C21_27
REMARK   14  A    between atoms: C20_26  and  C22_28
REMARK   15  A    between atoms: C23_30  and  C24_32
REMARK   16  A    between atoms: C24_32  and  C25_33
REMARK   17  A    between atoms: C24_32  and  N4_37
REMARK   18  A    between atoms: C25_33  and  C26_34
REMARK   19  A    between atoms: C26_34  and  C27_35
REMARK   20  A    between atoms: C26_34  and  C28_36
REMARK                            x       y       z     vdW  Elec       q    Type
REMARK                         _______ _______ _______ _____ _____    ______ ____
ROOT
ATOM      1  C12 UNL     1       6.411  -5.920  -9.593  0.00  0.00    +0.159 C 
ENDROOT
BRANCH   1   3
ATOM      2  N1  UNL     1       6.565  -5.168 -11.946  0.00  0.00    -0.284 N 
ATOM      3  C11 UNL     1       7.256  -5.346 -10.752  0.00  0.00    +0.238 C 
ATOM      4  O3  UNL     1       8.439  -5.051 -10.572  0.00  0.00    -0.273 OA
ATOM      5  H8  UNL     1       5.552  -5.190 -11.916  0.00  0.00    +0.155 HD
BRANCH   2  16
ATOM      6  C1  UNL     1       9.965  -4.627 -17.634  0.00  0.00    +0.045 C 
ATOM      7  C2  UNL     1       8.960  -3.748 -16.947  0.00  0.00    -0.033 A 
ATOM      8  C3  UNL     1       8.599  -2.561 -17.457  0.00  0.00    +0.096 A 
ATOM      9  C4  UNL     1       7.619  -1.672 -16.819  0.00  0.00    +0.337 A 
ATOM     10  O1  UNL     1       7.337  -0.589 -17.322  0.00  0.00    -0.245 OA
ATOM     11  O2  UNL     1       7.036  -2.117 -15.643  0.00  0.00    -0.422 OA
ATOM     12  C5  UNL     1       7.406  -3.349 -15.064  0.00  0.00    +0.141 A 
ATOM     13  C6  UNL     1       8.352  -4.172 -15.677  0.00  0.00    +0.021 A 
ATOM     14  C7  UNL     1       8.677  -5.366 -15.033  0.00  0.00    +0.013 A 
ATOM     15  C8  UNL     1       8.097  -5.695 -13.801  0.00  0.00    +0.024 A 
ATOM     16  C9  UNL     1       7.163  -4.854 -13.189  0.00  0.00    +0.037 A 
ATOM     17  C10 UNL     1       6.790  -3.682 -13.849  0.00  0.00    +0.070 A 
ENDBRANCH   2  16
ENDBRANCH   1   3
BRANCH   1  18
ATOM     18  N2  UNL     1       5.009  -5.755  -9.973  0.00  0.00    -0.302 N 
ATOM     19  C17 UNL     1       4.217  -4.795  -9.378  0.00  0.00    +0.234 C 
ATOM     20  O4  UNL     1       4.647  -4.033  -8.517  0.00  0.00    -0.274 OA
ATOM     21  H19 UNL     1       4.725  -6.148 -10.856  0.00  0.00    +0.150 HD
BRANCH  19  22
ATOM     22  C18 UNL     1       2.753  -4.754  -9.884  0.00  0.00    +0.159 C 
BRANCH  22  23
ATOM     23  N3  UNL     1       1.891  -4.070  -8.917  0.00  0.00    -0.303 N 
ATOM     24  C23 UNL     1       1.227  -4.794  -7.945  0.00  0.00    +0.230 C 
ATOM     25  O5  UNL     1       1.266  -6.022  -7.894  0.00  0.00    -0.274 OA
ATOM     26  H30 UNL     1       1.771  -3.071  -8.962  0.00  0.00    +0.149 HD
BRANCH  24  27
ATOM     27  C24 UNL     1       0.441  -3.959  -6.907  0.00  0.00    +0.138 C 
BRANCH  27  28
ATOM     28  N4  UNL     1       1.124  -2.670  -6.679  0.00  0.00    -0.320 NA
ATOM     29  H41 UNL     1       2.085  -2.757  -7.020  0.00  0.00    +0.119 HD
ATOM     30  H42 UNL     1       0.706  -1.941  -7.249  0.00  0.00    +0.119 HD
ENDBRANCH  27  28
BRANCH  27  31
ATOM     31  C25 UNL     1      -1.023  -3.770  -7.331  0.00  0.00    +0.031 C 
BRANCH  31  32
ATOM     32  C26 UNL     1      -2.053  -4.021  -6.205  0.00  0.00    -0.015 C 
ATOM     33  C27 UNL     1      -3.504  -3.961  -6.679  0.00  0.00    +0.007 C 
ATOM     34  C28 UNL     1      -1.787  -5.381  -5.553  0.00  0.00    +0.007 C 
ENDBRANCH  31  32
ENDBRANCH  27  31
ENDBRANCH  24  27
ENDBRANCH  22  23
BRANCH  22  35
ATOM     35  C19 UNL     1       2.611  -4.191 -11.311  0.00  0.00    +0.034 C 
BRANCH  35  36
ATOM     36  C20 UNL     1       2.155  -5.110 -12.471  0.00  0.00    -0.015 C 
ATOM     37  C21 UNL     1       1.435  -6.372 -11.995  0.00  0.00    +0.007 C 
ATOM     38  C22 UNL     1       3.255  -5.466 -13.466  0.00  0.00    +0.007 C 
ENDBRANCH  35  36
ENDBRANCH  22  35
ENDBRANCH  19  22
ENDBRANCH   1  18
BRANCH   1  39
ATOM     39  C13 UNL     1       6.760  -7.406  -9.394  0.00  0.00    +0.034 C 
BRANCH  39  40
ATOM     40  C14 UNL     1       6.275  -8.072  -8.084  0.00  0.00    -0.015 C 
ATOM     41  C15 UNL     1       5.929  -7.052  -7.000  0.00  0.00    +0.007 C 
ATOM     42  C16 UNL     1       5.116  -9.048  -8.284  0.00  0.00    +0.007 C 
ENDBRANCH  39  40
ENDBRANCH   1  39
TORSDOF 13
ENDMDL
MODEL 3
REMARK VINA RESULT:      -7.8      1.494      1.832
REMARK  Name = LLL-AMC_min.pdb
REMARK  20 active torsions:
REMARK  status: ('A' for Active; 'I' for Inactive)
REMARK    1  A    between atoms: C1_1  and  C2_2
REMARK    2  A    between atoms: C9_11  and  N1_13
REMARK    3  A    between atoms: C11_14  and  C12_16
REMARK    4  A    between atoms: C12_16  and  C13_17
REMARK    5  A    between atoms: C12_16  and  N2_21
REMARK    6  A    between atoms: C13_17  and  C14_18
REMARK    7  A    between atoms: C14_18  and  C15_19
REMARK    8  A    between atoms: C14_18  and  C16_20
REMARK    9  A    between atoms: C17_22  and  C18_24
REMARK   10  A    between atoms: C18_24  and  C19_25
REMARK   11  A    between atoms: C18_24  and  N3_29
REMARK   12  A    between atoms: C19_25  and  C20_26
REMARK   13  A    between atoms: C20_26  and  C21_27
REMARK   14  A    between atoms: C20_26  and  C22_28
REMARK   15  A    between atoms: C23_30  and  C24_32
REMARK   16  A    between atoms: C24_32  and  C25_33
REMARK   17  A    between atoms: C24_32  and  N4_37
REMARK   18  A    between atoms: C25_33  and  C26_34
REMARK   19  A    between atoms: C26_34  and  C27_35
REMARK   20  A    between atoms: C26_34  and  C28_36
REMARK                            x       y       z     vdW  Elec       q    Type
REMARK                         _______ _______ _______ _____ _____    ______ ____
ROOT
ATOM      1  C12 UNL     1       5.021  -6.797  -7.766  0.00  0.00    +0.159 C 
ENDROOT
BRANCH   1   3
ATOM      2  N1  UNL     1       5.570  -5.741  -9.936  0.00  0.00    -0.284 N 
ATOM      3  C11 UNL     1       6.033  -6.555  -8.909  0.00  0.00    +0.238 C 
ATOM      4  O3  UNL     1       7.164  -7.040  -8.849  0.00  0.00    -0.273 OA
ATOM      5  H8  UNL     1       4.738  -5.188  -9.765  0.00  0.00    +0.155 HD
BRANCH   2  16
ATOM      6  C1  UNL     1       8.523  -5.910 -15.891  0.00  0.00    +0.045 C 
ATOM      7  C2  UNL     1       8.314  -4.824 -14.875  0.00  0.00    -0.033 A 
ATOM      8  C3  UNL     1       8.795  -3.585 -15.061  0.00  0.00    +0.096 A 
ATOM      9  C4  UNL     1       8.612  -2.494 -14.094  0.00  0.00    +0.337 A 
ATOM     10  O1  UNL     1       9.087  -1.384 -14.308  0.00  0.00    -0.245 OA
ATOM     11  O2  UNL     1       7.881  -2.780 -12.952  0.00  0.00    -0.422 OA
ATOM     12  C5  UNL     1       7.377  -4.075 -12.712  0.00  0.00    +0.141 A 
ATOM     13  C6  UNL     1       7.576  -5.103 -13.635  0.00  0.00    +0.021 A 
ATOM     14  C7  UNL     1       7.064  -6.361 -13.316  0.00  0.00    +0.013 A 
ATOM     15  C8  UNL     1       6.408  -6.577 -12.096  0.00  0.00    +0.024 A 
ATOM     16  C9  UNL     1       6.229  -5.544 -11.173  0.00  0.00    +0.037 A 
ATOM     17  C10 UNL     1       6.692  -4.268 -11.503  0.00  0.00    +0.070 A 
ENDBRANCH   2  16
ENDBRANCH   1   3
BRANCH   1  18
ATOM     18  N2  UNL     1       3.794  -6.093  -8.137  0.00  0.00    -0.302 N 
ATOM     19  C17 UNL     1       2.964  -5.553  -7.177  0.00  0.00    +0.234 C 
ATOM     20  O4  UNL     1       3.216  -5.624  -5.977  0.00  0.00    -0.274 OA
ATOM     21  H19 UNL     1       3.721  -5.769  -9.088  0.00  0.00    +0.150 HD
BRANCH  19  22
ATOM     22  C18 UNL     1       1.700  -4.848  -7.731  0.00  0.00    +0.159 C 
BRANCH  22  23
ATOM     23  N3  UNL     1       1.748  -4.775  -9.193  0.00  0.00    -0.303 N 
ATOM     24  C23 UNL     1       2.313  -3.679  -9.816  0.00  0.00    +0.230 C 
ATOM     25  O5  UNL     1       2.723  -2.704  -9.191  0.00  0.00    -0.274 OA
ATOM     26  H30 UNL     1       1.360  -5.520  -9.751  0.00  0.00    +0.149 HD
BRANCH  24  27
ATOM     27  C24 UNL     1       2.416  -3.763 -11.357  0.00  0.00    +0.138 C 
BRANCH  27  28
ATOM     28  N4  UNL     1       3.565  -2.963 -11.828  0.00  0.00    -0.320 NA
ATOM     29  H41 UNL     1       4.320  -3.063 -11.145  0.00  0.00    +0.119 HD
ATOM     30  H42 UNL     1       3.936  -3.349 -12.691  0.00  0.00    +0.119 HD
ENDBRANCH  27  28
BRANCH  27  31
ATOM     31  C25 UNL     1       2.492  -5.221 -11.836  0.00  0.00    +0.031 C 
BRANCH  31  32
ATOM     32  C26 UNL     1       2.108  -5.427 -13.320  0.00  0.00    -0.015 C 
ATOM     33  C27 UNL     1       3.251  -5.963 -14.179  0.00  0.00    +0.007 C 
ATOM     34  C28 UNL     1       0.910  -6.376 -13.418  0.00  0.00    +0.007 C 
ENDBRANCH  31  32
ENDBRANCH  27  31
ENDBRANCH  24  27
ENDBRANCH  22  23
BRANCH  22  35
ATOM     35  C19 UNL     1       0.381  -5.448  -7.207  0.00  0.00    +0.034 C 
BRANCH  35  36
ATOM     36  C20 UNL     1      -0.595  -4.580  -6.375  0.00  0.00    -0.015 C 
ATOM     37  C21 UNL     1      -1.649  -5.400  -5.630  0.00  0.00    +0.007 C 
ATOM     38  C22 UNL     1      -1.255  -3.446  -7.154  0.00  0.00    +0.007 C 
ENDBRANCH  35  36
ENDBRANCH  22  35
ENDBRANCH  19  22
ENDBRANCH   1  18
BRANCH   1  39
ATOM     39  C13 UNL     1       4.770  -8.309  -7.618  0.00  0.00    +0.034 C 
BRANCH  39  40
ATOM     40  C14 UNL     1       4.709  -8.872  -6.178  0.00  0.00    -0.015 C 
ATOM     41  C15 UNL     1       4.269 -10.334  -6.137  0.00  0.00    +0.007 C 
ATOM     42  C16 UNL     1       6.007  -8.686  -5.391  0.00  0.00    +0.007 C 
ENDBRANCH  39  40
ENDBRANCH   1  39
TORSDOF 13
ENDMDL
MODEL 4
REMARK VINA RESULT:      -7.8      0.988      1.273
REMARK  Name = LLL-AMC_min.pdb
REMARK  20 active torsions:
REMARK  status: ('A' for Active; 'I' for Inactive)
REMARK    1  A    between atoms: C1_1  and  C2_2
REMARK    2  A    between atoms: C9_11  and  N1_13
REMARK    3  A    between atoms: C11_14  and  C12_16
REMARK    4  A    between atoms: C12_16  and  C13_17
REMARK    5  A    between atoms: C12_16  and  N2_21
REMARK    6  A    between atoms: C13_17  and  C14_18
REMARK    7  A    between atoms: C14_18  and  C15_19
REMARK    8  A    between atoms: C14_18  and  C16_20
REMARK    9  A    between atoms: C17_22  and  C18_24
REMARK   10  A    between atoms: C18_24  and  C19_25
REMARK   11  A    between atoms: C18_24  and  N3_29
REMARK   12  A    between atoms: C19_25  and  C20_26
REMARK   13  A    between atoms: C20_26  and  C21_27
REMARK   14  A    between atoms: C20_26  and  C22_28
REMARK   15  A    between atoms: C23_30  and  C24_32
REMARK   16  A    between atoms: C24_32  and  C25_33
REMARK   17  A    between atoms: C24_32  and  N4_37
REMARK   18  A    between atoms: C25_33  and  C26_34
REMARK   19  A    between atoms: C26_34  and  C27_35
REMARK   20  A    between atoms: C26_34  and  C28_36
REMARK                            x       y       z     vdW  Elec       q    Type
REMARK                         _______ _______ _______ _____ _____    ______ ____
ROOT
ATOM      1  C12 UNL     1       5.482  -6.088  -8.807  0.00  0.00    +0.159 C 
ENDROOT
BRANCH   1   3
ATOM      2  N1  UNL     1       5.599  -5.585 -11.227  0.00  0.00    -0.284 N 
ATOM      3  C11 UNL     1       6.312  -5.655 -10.036  0.00  0.00    +0.238 C 
ATOM      4  O3  UNL     1       7.505  -5.371  -9.911  0.00  0.00    -0.273 OA
ATOM      5  H8  UNL     1       4.587  -5.581 -11.175  0.00  0.00    +0.155 HD
BRANCH   2  16
ATOM      6  C1  UNL     1       8.577  -5.861 -17.166  0.00  0.00    +0.045 C 
ATOM      7  C2  UNL     1       7.958  -4.745 -16.375  0.00  0.00    -0.033 A 
ATOM      8  C3  UNL     1       7.961  -3.480 -16.822  0.00  0.00    +0.096 A 
ATOM      9  C4  UNL     1       7.366  -2.359 -16.081  0.00  0.00    +0.337 A 
ATOM     10  O1  UNL     1       7.411  -1.219 -16.530  0.00  0.00    -0.245 OA
ATOM     11  O2  UNL     1       6.758  -2.656 -14.872  0.00  0.00    -0.422 OA
ATOM     12  C5  UNL     1       6.753  -3.969 -14.358  0.00  0.00    +0.141 A 
ATOM     13  C6  UNL     1       7.339  -5.018 -15.069  0.00  0.00    +0.021 A 
ATOM     14  C7  UNL     1       7.310  -6.284 -14.486  0.00  0.00    +0.013 A 
ATOM     15  C8  UNL     1       6.744  -6.475 -13.218  0.00  0.00    +0.024 A 
ATOM     16  C9  UNL     1       6.176  -5.414 -12.508  0.00  0.00    +0.037 A 
ATOM     17  C10 UNL     1       6.152  -4.151 -13.104  0.00  0.00    +0.070 A 
ENDBRANCH   2  16
ENDBRANCH   1   3
BRANCH   1  18
ATOM     18  N2  UNL     1       4.077  -5.897  -9.161  0.00  0.00    -0.302 N 
ATOM     19  C17 UNL     1       3.146  -5.524  -8.215  0.00  0.00    +0.234 C 
ATOM     20  O4  UNL     1       3.450  -5.324  -7.041  0.00  0.00    -0.274 OA
ATOM     21  H19 UNL     1       3.865  -5.764 -10.138  0.00  0.00    +0.150 HD
BRANCH  19  22
ATOM     22  C18 UNL     1       1.699  -5.373  -8.748  0.00  0.00    +0.159 C 
BRANCH  22  23
ATOM     23  N3  UNL     1       1.508  -6.174  -9.958  0.00  0.00    -0.303 N 
ATOM     24  C23 UNL     1       1.925  -5.692 -11.184  0.00  0.00    +0.230 C 
ATOM     25  O5  UNL     1       2.394  -4.565 -11.324  0.00  0.00    -0.274 OA
ATOM     26  H30 UNL     1       1.063  -7.077  -9.904  0.00  0.00    +0.149 HD
BRANCH  24  27
ATOM     27  C24 UNL     1       1.781  -6.670 -12.374  0.00  0.00    +0.138 C 
BRANCH  27  28
ATOM     28  N4  UNL     1       1.063  -7.885 -11.941  0.00  0.00    -0.320 NA
ATOM     29  H41 UNL     1       0.473  -7.635 -11.143  0.00  0.00    +0.119 HD
ATOM     30  H42 UNL     1       0.416  -8.191 -12.662  0.00  0.00    +0.119 HD
ENDBRANCH  27  28
BRANCH  27  31
ATOM     31  C25 UNL     1       1.103  -5.995 -13.576  0.00  0.00    +0.031 C 
BRANCH  31  32
ATOM     32  C26 UNL     1       1.891  -6.111 -14.902  0.00  0.00    -0.015 C 
ATOM     33  C27 UNL     1       3.402  -5.962 -14.731  0.00  0.00    +0.007 C 
ATOM     34  C28 UNL     1       1.584  -7.453 -15.572  0.00  0.00    +0.007 C 
ENDBRANCH  31  32
ENDBRANCH  27  31
ENDBRANCH  24  27
ENDBRANCH  22  23
BRANCH  22  35
ATOM     35  C19 UNL     1       0.619  -5.637  -7.681  0.00  0.00    +0.034 C 
BRANCH  35  36
ATOM     36  C20 UNL     1      -0.274  -4.480  -7.170  0.00  0.00    -0.015 C 
ATOM     37  C21 UNL     1       0.518  -3.231  -6.782  0.00  0.00    +0.007 C 
ATOM     38  C22 UNL     1      -1.236  -4.869  -6.052  0.00  0.00    +0.007 C 
ENDBRANCH  35  36
ENDBRANCH  22  35
ENDBRANCH  19  22
ENDBRANCH   1  18
BRANCH   1  39
ATOM     39  C13 UNL     1       5.778  -7.564  -8.485  0.00  0.00    +0.034 C 
BRANCH  39  40
ATOM     40  C14 UNL     1       6.003  -7.926  -6.998  0.00  0.00    -0.015 C 
ATOM     41  C15 UNL     1       6.554  -6.755  -6.185  0.00  0.00    +0.007 C 
ATOM     42  C16 UNL     1       4.768  -8.512  -6.314  0.00  0.00    +0.007 C 
ENDBRANCH  39  40
ENDBRANCH   1  39
TORSDOF 13
ENDMDL
MODEL 5
REMARK VINA RESULT:      -7.7      1.975      5.472
REMARK  Name = LLL-AMC_min.pdb
REMARK  20 active torsions:
REMARK  status: ('A' for Active; 'I' for Inactive)
REMARK    1  A    between atoms: C1_1  and  C2_2
REMARK    2  A    between atoms: C9_11  and  N1_13
REMARK    3  A    between atoms: C11_14  and  C12_16
REMARK    4  A    between atoms: C12_16  and  C13_17
REMARK    5  A    between atoms: C12_16  and  N2_21
REMARK    6  A    between atoms: C13_17  and  C14_18
REMARK    7  A    between atoms: C14_18  and  C15_19
REMARK    8  A    between atoms: C14_18  and  C16_20
REMARK    9  A    between atoms: C17_22  and  C18_24
REMARK   10  A    between atoms: C18_24  and  C19_25
REMARK   11  A    between atoms: C18_24  and  N3_29
REMARK   12  A    between atoms: C19_25  and  C20_26
REMARK   13  A    between atoms: C20_26  and  C21_27
REMARK   14  A    between atoms: C20_26  and  C22_28
REMARK   15  A    between atoms: C23_30  and  C24_32
REMARK   16  A    between atoms: C24_32  and  C25_33
REMARK   17  A    between atoms: C24_32  and  N4_37
REMARK   18  A    between atoms: C25_33  and  C26_34
REMARK   19  A    between atoms: C26_34  and  C27_35
REMARK   20  A    between atoms: C26_34  and  C28_36
REMARK                            x       y       z     vdW  Elec       q    Type
REMARK                         _______ _______ _______ _____ _____    ______ ____
ROOT
ATOM      1  C12 UNL     1       2.877  -7.254 -12.075  0.00  0.00    +0.159 C 
ENDROOT
BRANCH   1   3
ATOM      2  N1  UNL     1       5.037  -6.580 -13.078  0.00  0.00    -0.284 N 
ATOM      3  C11 UNL     1       3.720  -6.945 -13.333  0.00  0.00    +0.238 C 
ATOM      4  O3  UNL     1       3.225  -7.064 -14.456  0.00  0.00    -0.273 OA
ATOM      5  H8  UNL     1       5.411  -6.767 -12.155  0.00  0.00    +0.155 HD
BRANCH   2  16
ATOM      6  C1  UNL     1       9.579  -5.188 -17.730  0.00  0.00    +0.045 C 
ATOM      7  C2  UNL     1       8.666  -4.337 -16.894  0.00  0.00    -0.033 A 
ATOM      8  C3  UNL     1       8.683  -2.998 -16.975  0.00  0.00    +0.096 A 
ATOM      9  C4  UNL     1       7.806  -2.129 -16.178  0.00  0.00    +0.337 A 
ATOM     10  O1  UNL     1       7.874  -0.909 -16.281  0.00  0.00    -0.245 OA
ATOM     11  O2  UNL     1       6.910  -2.752 -15.324  0.00  0.00    -0.422 OA
ATOM     12  C5  UNL     1       6.878  -4.156 -15.195  0.00  0.00    +0.141 A 
ATOM     13  C6  UNL     1       7.731  -4.964 -15.949  0.00  0.00    +0.021 A 
ATOM     14  C7  UNL     1       7.651  -6.342 -15.751  0.00  0.00    +0.013 A 
ATOM     15  C8  UNL     1       6.771  -6.879 -14.802  0.00  0.00    +0.024 A 
ATOM     16  C9  UNL     1       5.934  -6.059 -14.041  0.00  0.00    +0.037 A 
ATOM     17  C10 UNL     1       5.967  -4.681 -14.267  0.00  0.00    +0.070 A 
ENDBRANCH   2  16
ENDBRANCH   1   3
BRANCH   1  18
ATOM     18  N2  UNL     1       3.365  -6.372 -11.016  0.00  0.00    -0.302 N 
ATOM     19  C17 UNL     1       3.263  -6.728  -9.688  0.00  0.00    +0.234 C 
ATOM     20  O4  UNL     1       2.774  -7.797  -9.332  0.00  0.00    -0.274 OA
ATOM     21  H19 UNL     1       4.019  -5.654 -11.284  0.00  0.00    +0.150 HD
BRANCH  19  22
ATOM     22  C18 UNL     1       3.817  -5.682  -8.689  0.00  0.00    +0.159 C 
BRANCH  22  23
ATOM     23  N3  UNL     1       2.814  -5.353  -7.675  0.00  0.00    -0.303 N 
ATOM     24  C23 UNL     1       2.187  -4.121  -7.691  0.00  0.00    +0.230 C 
ATOM     25  O5  UNL     1       2.490  -3.238  -8.490  0.00  0.00    -0.274 OA
ATOM     26  H30 UNL     1       2.582  -6.019  -6.955  0.00  0.00    +0.149 HD
BRANCH  24  27
ATOM     27  C24 UNL     1       1.062  -3.927  -6.647  0.00  0.00    +0.138 C 
BRANCH  27  28
ATOM     28  N4  UNL     1       0.757  -2.490  -6.499  0.00  0.00    -0.320 NA
ATOM     29  H41 UNL     1       1.606  -2.019  -6.177  0.00  0.00    +0.119 HD
ATOM     30  H42 UNL     1       0.551  -2.076  -7.403  0.00  0.00    +0.119 HD
ENDBRANCH  27  28
BRANCH  27  31
ATOM     31  C25 UNL     1      -0.186  -4.748  -7.009  0.00  0.00    +0.031 C 
BRANCH  31  32
ATOM     32  C26 UNL     1      -1.417  -4.467  -6.115  0.00  0.00    -0.015 C 
ATOM     33  C27 UNL     1      -2.608  -3.893  -6.879  0.00  0.00    +0.007 C 
ATOM     34  C28 UNL     1      -1.843  -5.753  -5.400  0.00  0.00    +0.007 C 
ENDBRANCH  31  32
ENDBRANCH  27  31
ENDBRANCH  24  27
ENDBRANCH  22  23
BRANCH  22  35
ATOM     35  C19 UNL     1       5.176  -6.074  -8.077  0.00  0.00    +0.034 C 
BRANCH  35  36
ATOM     36  C20 UNL     1       5.258  -6.571  -6.613  0.00  0.00    -0.015 C 
ATOM     37  C21 UNL     1       6.626  -6.341  -5.971  0.00  0.00    +0.007 C 
ATOM     38  C22 UNL     1       4.811  -8.016  -6.409  0.00  0.00    +0.007 C 
ENDBRANCH  35  36
ENDBRANCH  22  35
ENDBRANCH  19  22
ENDBRANCH   1  18
BRANCH   1  39
ATOM     39  C13 UNL     1       1.391  -6.987 -12.379  0.00  0.00    +0.034 C 
BRANCH  39  40
ATOM     40  C14 UNL     1       0.467  -8.222 -12.496  0.00  0.00    -0.015 C 
ATOM     41  C15 UNL     1       0.301  -8.698 -13.938  0.00  0.00    +0.007 C 
ATOM     42  C16 UNL     1       0.882  -9.388 -11.597  0.00  0.00    +0.007 C 
ENDBRANCH  39  40
ENDBRANCH   1  39
TORSDOF 13
ENDMDL
MODEL 6
REMARK VINA RESULT:      -7.6      2.080      5.536
REMARK  Name = LLL-AMC_min.pdb
REMARK  20 active torsions:
REMARK  status: ('A' for Active; 'I' for Inactive)
REMARK    1  A    between atoms: C1_1  and  C2_2
REMARK    2  A    between atoms: C9_11  and  N1_13
REMARK    3  A    between atoms: C11_14  and  C12_16
REMARK    4  A    between atoms: C12_16  and  C13_17
REMARK    5  A    between atoms: C12_16  and  N2_21
REMARK    6  A    between atoms: C13_17  and  C14_18
REMARK    7  A    between atoms: C14_18  and  C15_19
REMARK    8  A    between atoms: C14_18  and  C16_20
REMARK    9  A    between atoms: C17_22  and  C18_24
REMARK   10  A    between atoms: C18_24  and  C19_25
REMARK   11  A    between atoms: C18_24  and  N3_29
REMARK   12  A    between atoms: C19_25  and  C20_26
REMARK   13  A    between atoms: C20_26  and  C21_27
REMARK   14  A    between atoms: C20_26  and  C22_28
REMARK   15  A    between atoms: C23_30  and  C24_32
REMARK   16  A    between atoms: C24_32  and  C25_33
REMARK   17  A    between atoms: C24_32  and  N4_37
REMARK   18  A    between atoms: C25_33  and  C26_34
REMARK   19  A    between atoms: C26_34  and  C27_35
REMARK   20  A    between atoms: C26_34  and  C28_36
REMARK                            x       y       z     vdW  Elec       q    Type
REMARK                         _______ _______ _______ _____ _____    ______ ____
ROOT
ATOM      1  C12 UNL     1       3.337  -6.319 -11.150  0.00  0.00    +0.159 C 
ENDROOT
BRANCH   1   3
ATOM      2  N1  UNL     1       4.834  -4.797 -12.402  0.00  0.00    -0.284 N 
ATOM      3  C11 UNL     1       4.627  -6.103 -11.971  0.00  0.00    +0.238 C 
ATOM      4  O3  UNL     1       5.401  -7.042 -12.171  0.00  0.00    -0.273 OA
ATOM      5  H8  UNL     1       4.287  -4.062 -11.968  0.00  0.00    +0.155 HD
BRANCH   2  16
ATOM      6  C1  UNL     1       9.880  -2.291 -15.932  0.00  0.00    +0.045 C 
ATOM      7  C2  UNL     1       8.739  -3.205 -16.272  0.00  0.00    -0.033 A 
ATOM      8  C3  UNL     1       8.557  -3.668 -17.518  0.00  0.00    +0.096 A 
ATOM      9  C4  UNL     1       7.455  -4.565 -17.894  0.00  0.00    +0.337 A 
ATOM     10  O1  UNL     1       7.327  -4.946 -19.052  0.00  0.00    -0.245 OA
ATOM     11  O2  UNL     1       6.589  -4.956 -16.885  0.00  0.00    -0.422 OA
ATOM     12  C5  UNL     1       6.736  -4.474 -15.568  0.00  0.00    +0.141 A 
ATOM     13  C6  UNL     1       7.779  -3.608 -15.235  0.00  0.00    +0.021 A 
ATOM     14  C7  UNL     1       7.845  -3.161 -13.915  0.00  0.00    +0.013 A 
ATOM     15  C8  UNL     1       6.874  -3.544 -12.980  0.00  0.00    +0.024 A 
ATOM     16  C9  UNL     1       5.824  -4.397 -13.330  0.00  0.00    +0.037 A 
ATOM     17  C10 UNL     1       5.777  -4.894 -14.635  0.00  0.00    +0.070 A 
ENDBRANCH   2  16
ENDBRANCH   1   3
BRANCH   1  18
ATOM     18  N2  UNL     1       3.654  -5.963  -9.768  0.00  0.00    -0.302 N 
ATOM     19  C17 UNL     1       3.331  -6.802  -8.722  0.00  0.00    +0.234 C 
ATOM     20  O4  UNL     1       2.778  -7.884  -8.899  0.00  0.00    -0.274 OA
ATOM     21  H19 UNL     1       4.352  -5.249  -9.627  0.00  0.00    +0.150 HD
BRANCH  19  22
ATOM     22  C18 UNL     1       3.726  -6.277  -7.319  0.00  0.00    +0.159 C 
BRANCH  22  23
ATOM     23  N3  UNL     1       2.584  -5.631  -6.669  0.00  0.00    -0.303 N 
ATOM     24  C23 UNL     1       2.108  -4.422  -7.141  0.00  0.00    +0.230 C 
ATOM     25  O5  UNL     1       2.654  -3.811  -8.057  0.00  0.00    -0.274 OA
ATOM     26  H30 UNL     1       2.146  -6.059  -5.869  0.00  0.00    +0.149 HD
BRANCH  24  27
ATOM     27  C24 UNL     1       0.828  -3.891  -6.455  0.00  0.00    +0.138 C 
BRANCH  27  28
ATOM     28  N4  UNL     1       0.759  -2.423  -6.587  0.00  0.00    -0.320 NA
ATOM     29  H41 UNL     1       0.127  -2.204  -7.362  0.00  0.00    +0.119 HD
ATOM     30  H42 UNL     1       0.323  -2.012  -5.766  0.00  0.00    +0.119 HD
ENDBRANCH  27  28
BRANCH  27  31
ATOM     31  C25 UNL     1      -0.431  -4.581  -7.004  0.00  0.00    +0.031 C 
BRANCH  31  32
ATOM     32  C26 UNL     1      -1.688  -4.417  -6.119  0.00  0.00    -0.015 C 
ATOM     33  C27 UNL     1      -2.918  -3.936  -6.887  0.00  0.00    +0.007 C 
ATOM     34  C28 UNL     1      -2.009  -5.743  -5.423  0.00  0.00    +0.007 C 
ENDBRANCH  31  32
ENDBRANCH  27  31
ENDBRANCH  24  27
ENDBRANCH  22  23
BRANCH  22  35
ATOM     35  C19 UNL     1       4.394  -7.342  -6.428  0.00  0.00    +0.034 C 
BRANCH  35  36
ATOM     36  C20 UNL     1       5.938  -7.451  -6.366  0.00  0.00    -0.015 C 
ATOM     37  C21 UNL     1       6.430  -8.513  -5.384  0.00  0.00    +0.007 C 
ATOM     38  C22 UNL     1       6.657  -6.127  -6.124  0.00  0.00    +0.007 C 
ENDBRANCH  35  36
ENDBRANCH  22  35
ENDBRANCH  19  22
ENDBRANCH   1  18
BRANCH   1  39
ATOM     39  C13 UNL     1       2.218  -5.422 -11.711  0.00  0.00    +0.034 C 
BRANCH  39  40
ATOM     40  C14 UNL     1       1.256  -6.061 -12.740  0.00  0.00    -0.015 C 
ATOM     41  C15 UNL     1       1.698  -5.824 -14.183  0.00  0.00    +0.007 C 
ATOM     42  C16 UNL     1       1.002  -7.550 -12.501  0.00  0.00    +0.007 C 
ENDBRANCH  39  40
ENDBRANCH   1  39
TORSDOF 13
ENDMDL
MODEL 7
REMARK VINA RESULT:      -7.5      2.000      4.631
REMARK  Name = LLL-AMC_min.pdb
REMARK  20 active torsions:
REMARK  status: ('A' for Active; 'I' for Inactive)
REMARK    1  A    between atoms: C1_1  and  C2_2
REMARK    2  A    between atoms: C9_11  and  N1_13
REMARK    3  A    between atoms: C11_14  and  C12_16
REMARK    4  A    between atoms: C12_16  and  C13_17
REMARK    5  A    between atoms: C12_16  and  N2_21
REMARK    6  A    between atoms: C13_17  and  C14_18
REMARK    7  A    between atoms: C14_18  and  C15_19
REMARK    8  A    between atoms: C14_18  and  C16_20
REMARK    9  A    between atoms: C17_22  and  C18_24
REMARK   10  A    between atoms: C18_24  and  C19_25
REMARK   11  A    between atoms: C18_24  and  N3_29
REMARK   12  A    between atoms: C19_25  and  C20_26
REMARK   13  A    between atoms: C20_26  and  C21_27
REMARK   14  A    between atoms: C20_26  and  C22_28
REMARK   15  A    between atoms: C23_30  and  C24_32
REMARK   16  A    between atoms: C24_32  and  C25_33
REMARK   17  A    between atoms: C24_32  and  N4_37
REMARK   18  A    between atoms: C25_33  and  C26_34
REMARK   19  A    between atoms: C26_34  and  C27_35
REMARK   20  A    between atoms: C26_34  and  C28_36
REMARK                            x       y       z     vdW  Elec       q    Type
REMARK                         _______ _______ _______ _____ _____    ______ ____
ROOT
ATOM      1  C12 UNL     1       6.379  -6.134  -9.396  0.00  0.00    +0.159 C 
ENDROOT
BRANCH   1   3
ATOM      2  N1  UNL     1       6.712  -4.910 -11.522  0.00  0.00    -0.284 N 
ATOM      3  C11 UNL     1       7.322  -5.667 -10.528  0.00  0.00    +0.238 C 
ATOM      4  O3  UNL     1       8.524  -5.942 -10.488  0.00  0.00    -0.273 OA
ATOM      5  H8  UNL     1       5.796  -4.523 -11.328  0.00  0.00    +0.155 HD
BRANCH   2  16
ATOM      6  C1  UNL     1       9.418  -4.278 -17.562  0.00  0.00    +0.045 C 
ATOM      7  C2  UNL     1       9.231  -3.330 -16.413  0.00  0.00    -0.033 A 
ATOM      8  C3  UNL     1       9.682  -2.067 -16.462  0.00  0.00    +0.096 A 
ATOM      9  C4  UNL     1       9.519  -1.107 -15.362  0.00  0.00    +0.337 A 
ATOM     10  O1  UNL     1       9.965   0.032 -15.455  0.00  0.00    -0.245 OA
ATOM     11  O2  UNL     1       8.842  -1.548 -14.237  0.00  0.00    -0.422 OA
ATOM     12  C5  UNL     1       8.372  -2.874 -14.139  0.00  0.00    +0.141 A 
ATOM     13  C6  UNL     1       8.551  -3.776 -15.188  0.00  0.00    +0.021 A 
ATOM     14  C7  UNL     1       8.075  -5.075 -15.007  0.00  0.00    +0.013 A 
ATOM     15  C8  UNL     1       7.475  -5.455 -13.799  0.00  0.00    +0.024 A 
ATOM     16  C9  UNL     1       7.316  -4.547 -12.749  0.00  0.00    +0.037 A 
ATOM     17  C10 UNL     1       7.741  -3.230 -12.937  0.00  0.00    +0.070 A 
ENDBRANCH   2  16
ENDBRANCH   1   3
BRANCH   1  18
ATOM     18  N2  UNL     1       5.014  -5.887  -9.859  0.00  0.00    -0.302 N 
ATOM     19  C17 UNL     1       4.185  -5.008  -9.196  0.00  0.00    +0.234 C 
ATOM     20  O4  UNL     1       4.550  -4.386  -8.201  0.00  0.00    -0.274 OA
ATOM     21  H19 UNL     1       4.800  -6.143 -10.810  0.00  0.00    +0.150 HD
BRANCH  19  22
ATOM     22  C18 UNL     1       2.767  -4.864  -9.806  0.00  0.00    +0.159 C 
BRANCH  22  23
ATOM     23  N3  UNL     1       1.888  -4.120  -8.901  0.00  0.00    -0.303 N 
ATOM     24  C23 UNL     1       1.198  -4.783  -7.903  0.00  0.00    +0.230 C 
ATOM     25  O5  UNL     1       1.229  -6.005  -7.780  0.00  0.00    -0.274 OA
ATOM     26  H30 UNL     1       1.775  -3.124  -9.007  0.00  0.00    +0.149 HD
BRANCH  24  27
ATOM     27  C24 UNL     1       0.394  -3.884  -6.934  0.00  0.00    +0.138 C 
BRANCH  27  28
ATOM     28  N4  UNL     1       1.099  -2.602  -6.736  0.00  0.00    -0.320 NA
ATOM     29  H41 UNL     1       0.447  -1.948  -6.297  0.00  0.00    +0.119 HD
ATOM     30  H42 UNL     1       1.854  -2.713  -6.066  0.00  0.00    +0.119 HD
ENDBRANCH  27  28
BRANCH  27  31
ATOM     31  C25 UNL     1      -1.048  -3.681  -7.423  0.00  0.00    +0.031 C 
BRANCH  31  32
ATOM     32  C26 UNL     1      -2.126  -3.867  -6.330  0.00  0.00    -0.015 C 
ATOM     33  C27 UNL     1      -3.546  -3.577  -6.815  0.00  0.00    +0.007 C 
ATOM     34  C28 UNL     1      -2.060  -5.292  -5.773  0.00  0.00    +0.007 C 
ENDBRANCH  31  32
ENDBRANCH  27  31
ENDBRANCH  24  27
ENDBRANCH  22  23
BRANCH  22  35
ATOM     35  C19 UNL     1       2.768  -4.293 -11.237  0.00  0.00    +0.034 C 
BRANCH  35  36
ATOM     36  C20 UNL     1       2.188  -5.123 -12.409  0.00  0.00    -0.015 C 
ATOM     37  C21 UNL     1       1.515  -6.419 -11.957  0.00  0.00    +0.007 C 
ATOM     38  C22 UNL     1       3.176  -5.402 -13.537  0.00  0.00    +0.007 C 
ENDBRANCH  35  36
ENDBRANCH  22  35
ENDBRANCH  19  22
ENDBRANCH   1  18
BRANCH   1  39
ATOM     39  C13 UNL     1       6.610  -7.631  -9.125  0.00  0.00    +0.034 C 
BRANCH  39  40
ATOM     40  C14 UNL     1       6.887  -8.044  -7.660  0.00  0.00    -0.015 C 
ATOM     41  C15 UNL     1       8.289  -8.620  -7.466  0.00  0.00    +0.007 C 
ATOM     42  C16 UNL     1       6.628  -6.927  -6.648  0.00  0.00    +0.007 C 
ENDBRANCH  39  40
ENDBRANCH   1  39
TORSDOF 13
ENDMDL
MODEL 8
REMARK VINA RESULT:      -7.5      2.024      4.692
REMARK  Name = LLL-AMC_min.pdb
REMARK  20 active torsions:
REMARK  status: ('A' for Active; 'I' for Inactive)
REMARK    1  A    between atoms: C1_1  and  C2_2
REMARK    2  A    between atoms: C9_11  and  N1_13
REMARK    3  A    between atoms: C11_14  and  C12_16
REMARK    4  A    between atoms: C12_16  and  C13_17
REMARK    5  A    between atoms: C12_16  and  N2_21
REMARK    6  A    between atoms: C13_17  and  C14_18
REMARK    7  A    between atoms: C14_18  and  C15_19
REMARK    8  A    between atoms: C14_18  and  C16_20
REMARK    9  A    between atoms: C17_22  and  C18_24
REMARK   10  A    between atoms: C18_24  and  C19_25
REMARK   11  A    between atoms: C18_24  and  N3_29
REMARK   12  A    between atoms: C19_25  and  C20_26
REMARK   13  A    between atoms: C20_26  and  C21_27
REMARK   14  A    between atoms: C20_26  and  C22_28
REMARK   15  A    between atoms: C23_30  and  C24_32
REMARK   16  A    between atoms: C24_32  and  C25_33
REMARK   17  A    between atoms: C24_32  and  N4_37
REMARK   18  A    between atoms: C25_33  and  C26_34
REMARK   19  A    between atoms: C26_34  and  C27_35
REMARK   20  A    between atoms: C26_34  and  C28_36
REMARK                            x       y       z     vdW  Elec       q    Type
REMARK                         _______ _______ _______ _____ _____    ______ ____
ROOT
ATOM      1  C12 UNL     1       6.338  -5.971  -9.319  0.00  0.00    +0.159 C 
ENDROOT
BRANCH   1   3
ATOM      2  N1  UNL     1       6.721  -4.434 -11.220  0.00  0.00    -0.284 N 
ATOM      3  C11 UNL     1       7.272  -5.433 -10.426  0.00  0.00    +0.238 C 
ATOM      4  O3  UNL     1       8.422  -5.865 -10.533  0.00  0.00    -0.273 OA
ATOM      5  H8  UNL     1       5.881  -3.973 -10.889  0.00  0.00    +0.155 HD
BRANCH   2  16
ATOM      6  C1  UNL     1       9.965  -1.370 -16.150  0.00  0.00    +0.045 C 
ATOM      7  C2  UNL     1       8.933  -2.461 -16.117  0.00  0.00    -0.033 A 
ATOM      8  C3  UNL     1       8.449  -3.005 -17.244  0.00  0.00    +0.096 A 
ATOM      9  C4  UNL     1       7.442  -4.074 -17.257  0.00  0.00    +0.337 A 
ATOM     10  O1  UNL     1       7.022  -4.525 -18.317  0.00  0.00    -0.245 OA
ATOM     11  O2  UNL     1       7.003  -4.541 -16.028  0.00  0.00    -0.422 OA
ATOM     12  C5  UNL     1       7.473  -3.980 -14.822  0.00  0.00    +0.141 A 
ATOM     13  C6  UNL     1       8.418  -2.953 -14.831  0.00  0.00    +0.021 A 
ATOM     14  C7  UNL     1       8.818  -2.438 -13.598  0.00  0.00    +0.013 A 
ATOM     15  C8  UNL     1       8.257  -2.917 -12.407  0.00  0.00    +0.024 A 
ATOM     16  C9  UNL     1       7.299  -3.935 -12.412  0.00  0.00    +0.037 A 
ATOM     17  C10 UNL     1       6.929  -4.495 -13.636  0.00  0.00    +0.070 A 
ENDBRANCH   2  16
ENDBRANCH   1   3
BRANCH   1  18
ATOM     18  N2  UNL     1       4.969  -5.721  -9.767  0.00  0.00    -0.302 N 
ATOM     19  C17 UNL     1       4.164  -4.804  -9.123  0.00  0.00    +0.234 C 
ATOM     20  O4  UNL     1       4.556  -4.152  -8.159  0.00  0.00    -0.274 OA
ATOM     21  H19 UNL     1       4.733  -6.009 -10.703  0.00  0.00    +0.150 HD
BRANCH  19  22
ATOM     22  C18 UNL     1       2.739  -4.661  -9.713  0.00  0.00    +0.159 C 
BRANCH  22  23
ATOM     23  N3  UNL     1       1.875  -3.909  -8.800  0.00  0.00    -0.303 N 
ATOM     24  C23 UNL     1       1.090  -4.576  -7.878  0.00  0.00    +0.230 C 
ATOM     25  O5  UNL     1       1.024  -5.802  -7.833  0.00  0.00    -0.274 OA
ATOM     26  H30 UNL     1       1.841  -2.903  -8.846  0.00  0.00    +0.149 HD
BRANCH  24  27
ATOM     27  C24 UNL     1       0.310  -3.679  -6.888  0.00  0.00    +0.138 C 
BRANCH  27  28
ATOM     28  N4  UNL     1       1.059  -2.431  -6.644  0.00  0.00    -0.320 NA
ATOM     29  H41 UNL     1       0.872  -1.793  -7.422  0.00  0.00    +0.119 HD
ATOM     30  H42 UNL     1       0.700  -1.957  -5.821  0.00  0.00    +0.119 HD
ENDBRANCH  27  28
BRANCH  27  31
ATOM     31  C25 UNL     1      -1.119  -3.408  -7.384  0.00  0.00    +0.031 C 
BRANCH  31  32
ATOM     32  C26 UNL     1      -2.178  -4.407  -6.861  0.00  0.00    -0.015 C 
ATOM     33  C27 UNL     1      -1.782  -5.088  -5.552  0.00  0.00    +0.007 C 
ATOM     34  C28 UNL     1      -3.519  -3.691  -6.676  0.00  0.00    +0.007 C 
ENDBRANCH  31  32
ENDBRANCH  27  31
ENDBRANCH  24  27
ENDBRANCH  22  23
BRANCH  22  35
ATOM     35  C19 UNL     1       2.719  -4.101 -11.148  0.00  0.00    +0.034 C 
BRANCH  35  36
ATOM     36  C20 UNL     1       2.315  -5.010 -12.335  0.00  0.00    -0.015 C 
ATOM     37  C21 UNL     1       1.429  -6.186 -11.922  0.00  0.00    +0.007 C 
ATOM     38  C22 UNL     1       3.483  -5.497 -13.186  0.00  0.00    +0.007 C 
ENDBRANCH  35  36
ENDBRANCH  22  35
ENDBRANCH  19  22
ENDBRANCH   1  18
BRANCH   1  39
ATOM     39  C13 UNL     1       6.591  -7.478  -9.126  0.00  0.00    +0.034 C 
BRANCH  39  40
ATOM     40  C14 UNL     1       6.542  -8.016  -7.676  0.00  0.00    -0.015 C 
ATOM     41  C15 UNL     1       7.800  -8.796  -7.296  0.00  0.00    +0.007 C 
ATOM     42  C16 UNL     1       6.248  -6.940  -6.630  0.00  0.00    +0.007 C 
ENDBRANCH  39  40
ENDBRANCH   1  39
TORSDOF 13
ENDMDL
MODEL 9
REMARK VINA RESULT:      -7.5      2.861      7.030
REMARK  Name = LLL-AMC_min.pdb
REMARK  20 active torsions:
REMARK  status: ('A' for Active; 'I' for Inactive)
REMARK    1  A    between atoms: C1_1  and  C2_2
REMARK    2  A    between atoms: C9_11  and  N1_13
REMARK    3  A    between atoms: C11_14  and  C12_16
REMARK    4  A    between atoms: C12_16  and  C13_17
REMARK    5  A    between atoms: C12_16  and  N2_21
REMARK    6  A    between atoms: C13_17  and  C14_18
REMARK    7  A    between atoms: C14_18  and  C15_19
REMARK    8  A    between atoms: C14_18  and  C16_20
REMARK    9  A    between atoms: C17_22  and  C18_24
REMARK   10  A    between atoms: C18_24  and  C19_25
REMARK   11  A    between atoms: C18_24  and  N3_29
REMARK   12  A    between atoms: C19_25  and  C20_26
REMARK   13  A    between atoms: C20_26  and  C21_27
REMARK   14  A    between atoms: C20_26  and  C22_28
REMARK   15  A    between atoms: C23_30  and  C24_32
REMARK   16  A    between atoms: C24_32  and  C25_33
REMARK   17  A    between atoms: C24_32  and  N4_37
REMARK   18  A    between atoms: C25_33  and  C26_34
REMARK   19  A    between atoms: C26_34  and  C27_35
REMARK   20  A    between atoms: C26_34  and  C28_36
REMARK                            x       y       z     vdW  Elec       q    Type
REMARK                         _______ _______ _______ _____ _____    ______ ____
ROOT
ATOM      1  C12 UNL     1       2.200  -5.264  -8.115  0.00  0.00    +0.159 C 
ENDROOT
BRANCH   1   3
ATOM      2  N1  UNL     1       4.536  -5.927  -7.636  0.00  0.00    -0.284 N 
ATOM      3  C11 UNL     1       3.213  -6.351  -7.689  0.00  0.00    +0.238 C 
ATOM      4  O3  UNL     1       2.823  -7.483  -7.395  0.00  0.00    -0.273 OA
ATOM      5  H8  UNL     1       4.715  -4.930  -7.639  0.00  0.00    +0.155 HD
BRANCH   2  16
ATOM      6  C1  UNL     1       9.525 -10.315  -7.891  0.00  0.00    +0.045 C 
ATOM      7  C2  UNL     1       9.035  -9.373  -6.830  0.00  0.00    -0.033 A 
ATOM      8  C3  UNL     1       9.609  -9.319  -5.618  0.00  0.00    +0.096 A 
ATOM      9  C4  UNL     1       9.163  -8.411  -4.552  0.00  0.00    +0.337 A 
ATOM     10  O1  UNL     1       9.715  -8.413  -3.458  0.00  0.00    -0.245 OA
ATOM     11  O2  UNL     1       8.108  -7.563  -4.848  0.00  0.00    -0.422 OA
ATOM     12  C5  UNL     1       7.465  -7.605  -6.103  0.00  0.00    +0.141 A 
ATOM     13  C6  UNL     1       7.893  -8.487  -7.097  0.00  0.00    +0.021 A 
ATOM     14  C7  UNL     1       7.193  -8.482  -8.304  0.00  0.00    +0.013 A 
ATOM     15  C8  UNL     1       6.083  -7.646  -8.484  0.00  0.00    +0.024 A 
ATOM     16  C9  UNL     1       5.654  -6.780  -7.475  0.00  0.00    +0.037 A 
ATOM     17  C10 UNL     1       6.378  -6.738  -6.281  0.00  0.00    +0.070 A 
ENDBRANCH   2  16
ENDBRANCH   1   3
BRANCH   1  18
ATOM     18  N2  UNL     1       2.318  -5.125  -9.565  0.00  0.00    -0.302 N 
ATOM     19  C17 UNL     1       2.649  -3.916 -10.141  0.00  0.00    +0.234 C 
ATOM     20  O4  UNL     1       2.870  -2.911  -9.471  0.00  0.00    -0.274 OA
ATOM     21  H19 UNL     1       2.436  -5.972 -10.099  0.00  0.00    +0.150 HD
BRANCH  19  22
ATOM     22  C18 UNL     1       2.726  -3.931 -11.688  0.00  0.00    +0.159 C 
BRANCH  22  23
ATOM     23  N3  UNL     1       4.094  -3.671 -12.141  0.00  0.00    -0.303 N 
ATOM     24  C23 UNL     1       5.149  -4.393 -11.616  0.00  0.00    +0.230 C 
ATOM     25  O5  UNL     1       5.002  -5.214 -10.713  0.00  0.00    -0.274 OA
ATOM     26  H30 UNL     1       4.274  -2.957 -12.830  0.00  0.00    +0.149 HD
BRANCH  24  27
ATOM     27  C24 UNL     1       6.532  -4.118 -12.251  0.00  0.00    +0.138 C 
BRANCH  27  28
ATOM     28  N4  UNL     1       6.508  -2.826 -12.965  0.00  0.00    -0.320 NA
ATOM     29  H41 UNL     1       7.324  -2.790 -13.581  0.00  0.00    +0.119 HD
ATOM     30  H42 UNL     1       5.706  -2.779 -13.587  0.00  0.00    +0.119 HD
ENDBRANCH  27  28
BRANCH  27  31
ATOM     31  C25 UNL     1       7.653  -4.178 -11.202  0.00  0.00    +0.031 C 
BRANCH  31  32
ATOM     32  C26 UNL     1       8.810  -5.141 -11.557  0.00  0.00    -0.015 C 
ATOM     33  C27 UNL     1       8.555  -6.586 -11.131  0.00  0.00    +0.007 C 
ATOM     34  C28 UNL     1       9.080  -5.095 -13.064  0.00  0.00    +0.007 C 
ENDBRANCH  31  32
ENDBRANCH  27  31
ENDBRANCH  24  27
ENDBRANCH  22  23
BRANCH  22  35
ATOM     35  C19 UNL     1       2.120  -5.198 -12.323  0.00  0.00    +0.034 C 
BRANCH  35  36
ATOM     36  C20 UNL     1       2.843  -5.907 -13.494  0.00  0.00    -0.015 C 
ATOM     37  C21 UNL     1       2.055  -5.870 -14.803  0.00  0.00    +0.007 C 
ATOM     38  C22 UNL     1       3.300  -7.330 -13.188  0.00  0.00    +0.007 C 
ENDBRANCH  35  36
ENDBRANCH  22  35
ENDBRANCH  19  22
ENDBRANCH   1  18
BRANCH   1  39
ATOM     39  C13 UNL     1       0.780  -5.706  -7.714  0.00  0.00    +0.034 C 
BRANCH  39  40
ATOM     40  C14 UNL     1      -0.191  -4.598  -7.241  0.00  0.00    -0.015 C 
ATOM     41  C15 UNL     1      -1.161  -5.086  -6.167  0.00  0.00    +0.007 C 
ATOM     42  C16 UNL     1       0.511  -3.320  -6.781  0.00  0.00    +0.007 C 
ENDBRANCH  39  40
ENDBRANCH   1  39
TORSDOF 13
ENDMDL
MODEL 10
REMARK VINA RESULT:      -7.4      2.777      9.042
REMARK  Name = LLL-AMC_min.pdb
REMARK  20 active torsions:
REMARK  status: ('A' for Active; 'I' for Inactive)
REMARK    1  A    between atoms: C1_1  and  C2_2
REMARK    2  A    between atoms: C9_11  and  N1_13
REMARK    3  A    between atoms: C11_14  and  C12_16
REMARK    4  A    between atoms: C12_16  and  C13_17
REMARK    5  A    between atoms: C12_16  and  N2_21
REMARK    6  A    between atoms: C13_17  and  C14_18
REMARK    7  A    between atoms: C14_18  and  C15_19
REMARK    8  A    between atoms: C14_18  and  C16_20
REMARK    9  A    between atoms: C17_22  and  C18_24
REMARK   10  A    between atoms: C18_24  and  C19_25
REMARK   11  A    between atoms: C18_24  and  N3_29
REMARK   12  A    between atoms: C19_25  and  C20_26
REMARK   13  A    between atoms: C20_26  and  C21_27
REMARK   14  A    between atoms: C20_26  and  C22_28
REMARK   15  A    between atoms: C23_30  and  C24_32
REMARK   16  A    between atoms: C24_32  and  C25_33
REMARK   17  A    between atoms: C24_32  and  N4_37
REMARK   18  A    between atoms: C25_33  and  C26_34
REMARK   19  A    between atoms: C26_34  and  C27_35
REMARK   20  A    between atoms: C26_34  and  C28_36
REMARK                            x       y       z     vdW  Elec       q    Type
REMARK                         _______ _______ _______ _____ _____    ______ ____
ROOT
ATOM      1  C12 UNL     1       5.649  -5.439 -15.283  0.00  0.00    +0.159 C 
ENDROOT
BRANCH   1   3
ATOM      2  N1  UNL     1       4.999  -4.599 -13.047  0.00  0.00    -0.284 N 
ATOM      3  C11 UNL     1       4.649  -5.430 -14.105  0.00  0.00    +0.238 C 
ATOM      4  O3  UNL     1       3.616  -6.101 -14.163  0.00  0.00    -0.273 OA
ATOM      5  H8  UNL     1       5.718  -3.903 -13.208  0.00  0.00    +0.155 HD
BRANCH   2  16
ATOM      6  C1  UNL     1       1.396  -3.653  -7.540  0.00  0.00    +0.045 C 
ATOM      7  C2  UNL     1       2.532  -4.573  -7.882  0.00  0.00    -0.033 A 
ATOM      8  C3  UNL     1       3.053  -5.414  -6.976  0.00  0.00    +0.096 A 
ATOM      9  C4  UNL     1       4.162  -6.332  -7.269  0.00  0.00    +0.337 A 
ATOM     10  O1  UNL     1       4.610  -7.069  -6.398  0.00  0.00    -0.245 OA
ATOM     11  O2  UNL     1       4.662  -6.323  -8.561  0.00  0.00    -0.422 OA
ATOM     12  C5  UNL     1       4.155  -5.438  -9.536  0.00  0.00    +0.141 A 
ATOM     13  C6  UNL     1       3.112  -4.562  -9.233  0.00  0.00    +0.021 A 
ATOM     14  C7  UNL     1       2.680  -3.704 -10.245  0.00  0.00    +0.013 A 
ATOM     15  C8  UNL     1       3.302  -3.708 -11.500  0.00  0.00    +0.024 A 
ATOM     16  C9  UNL     1       4.357  -4.579 -11.786  0.00  0.00    +0.037 A 
ATOM     17  C10 UNL     1       4.765  -5.478 -10.798  0.00  0.00    +0.070 A 
ENDBRANCH   2  16
ENDBRANCH   1   3
BRANCH   1  18
ATOM     18  N2  UNL     1       6.748  -4.551 -14.906  0.00  0.00    -0.302 N 
ATOM     19  C17 UNL     1       7.198  -3.570 -15.764  0.00  0.00    +0.234 C 
ATOM     20  O4  UNL     1       6.696  -3.386 -16.870  0.00  0.00    -0.274 OA
ATOM     21  H19 UNL     1       6.967  -4.484 -13.925  0.00  0.00    +0.150 HD
BRANCH  19  22
ATOM     22  C18 UNL     1       8.374  -2.720 -15.221  0.00  0.00    +0.159 C 
BRANCH  22  23
ATOM     23  N3  UNL     1       9.071  -3.428 -14.145  0.00  0.00    -0.303 N 
ATOM     24  C23 UNL     1       9.281  -2.810 -12.927  0.00  0.00    +0.230 C 
ATOM     25  O5  UNL     1       8.969  -1.639 -12.720  0.00  0.00    -0.274 OA
ATOM     26  H30 UNL     1       9.409  -4.367 -14.291  0.00  0.00    +0.149 HD
BRANCH  24  27
ATOM     27  C24 UNL     1       9.919  -3.691 -11.828  0.00  0.00    +0.138 C 
BRANCH  27  28
ATOM     28  N4  UNL     1       9.201  -3.500 -10.552  0.00  0.00    -0.320 NA
ATOM     29  H41 UNL     1       8.734  -4.379 -10.318  0.00  0.00    +0.119 HD
ATOM     30  H42 UNL     1       9.860  -3.341  -9.795  0.00  0.00    +0.119 HD
ENDBRANCH  27  28
BRANCH  27  31
ATOM     31  C25 UNL     1       9.965  -5.168 -12.250  0.00  0.00    +0.031 C 
BRANCH  31  32
ATOM     32  C26 UNL     1       9.062  -6.101 -11.411  0.00  0.00    -0.015 C 
ATOM     33  C27 UNL     1       7.884  -6.679 -12.194  0.00  0.00    +0.007 C 
ATOM     34  C28 UNL     1       9.897  -7.246 -10.829  0.00  0.00    +0.007 C 
ENDBRANCH  31  32
ENDBRANCH  27  31
ENDBRANCH  24  27
ENDBRANCH  22  23
BRANCH  22  35
ATOM     35  C19 UNL     1       9.331  -2.218 -16.321  0.00  0.00    +0.034 C 
BRANCH  35  36
ATOM     36  C20 UNL     1       9.311  -0.731 -16.753  0.00  0.00    -0.015 C 
ATOM     37  C21 UNL     1       9.450   0.241 -15.582  0.00  0.00    +0.007 C 
ATOM     38  C22 UNL     1       8.124  -0.343 -17.630  0.00  0.00    +0.007 C 
ENDBRANCH  35  36
ENDBRANCH  22  35
ENDBRANCH  19  22
ENDBRANCH   1  18
BRANCH   1  39
ATOM     39  C13 UNL     1       6.151  -6.875 -15.516  0.00  0.00    +0.034 C 
BRANCH  39  40
ATOM     40  C14 UNL     1       7.234  -7.072 -16.602  0.00  0.00    -0.015 C 
ATOM     41  C15 UNL     1       8.646  -7.130 -16.021  0.00  0.00    +0.007 C 
ATOM     42  C16 UNL     1       6.984  -8.277 -17.509  0.00  0.00    +0.007 C 
ENDBRANCH  39  40
ENDBRANCH   1  39
TORSDOF 13
ENDMDL
MODEL 11
REMARK VINA RESULT:      -7.4      2.802      8.793
REMARK  Name = LLL-AMC_min.pdb
REMARK  20 active torsions:
REMARK  status: ('A' for Active; 'I' for Inactive)
REMARK    1  A    between atoms: C1_1  and  C2_2
REMARK    2  A    between atoms: C9_11  and  N1_13
REMARK    3  A    between atoms: C11_14  and  C12_16
REMARK    4  A    between atoms: C12_16  and  C13_17
REMARK    5  A    between atoms: C12_16  and  N2_21
REMARK    6  A    between atoms: C13_17  and  C14_18
REMARK    7  A    between atoms: C14_18  and  C15_19
REMARK    8  A    between atoms: C14_18  and  C16_20
REMARK    9  A    between atoms: C17_22  and  C18_24
REMARK   10  A    between atoms: C18_24  and  C19_25
REMARK   11  A    between atoms: C18_24  and  N3_29
REMARK   12  A    between atoms: C19_25  and  C20_26
REMARK   13  A    between atoms: C20_26  and  C21_27
REMARK   14  A    between atoms: C20_26  and  C22_28
REMARK   15  A    between atoms: C23_30  and  C24_32
REMARK   16  A    between atoms: C24_32  and  C25_33
REMARK   17  A    between atoms: C24_32  and  N4_37
REMARK   18  A    between atoms: C25_33  and  C26_34
REMARK   19  A    between atoms: C26_34  and  C27_35
REMARK   20  A    between atoms: C26_34  and  C28_36
REMARK                            x       y       z     vdW  Elec       q    Type
REMARK                         _______ _______ _______ _____ _____    ______ ____
ROOT
ATOM      1  C12 UNL     1       5.762  -5.115 -15.686  0.00  0.00    +0.159 C 
ENDROOT
BRANCH   1   3
ATOM      2  N1  UNL     1       5.102  -4.845 -13.316  0.00  0.00    -0.284 N 
ATOM      3  C11 UNL     1       4.734  -5.353 -14.557  0.00  0.00    +0.238 C 
ATOM      4  O3  UNL     1       3.668  -5.923 -14.798  0.00  0.00    -0.273 OA
ATOM      5  H8  UNL     1       5.862  -4.174 -13.284  0.00  0.00    +0.155 HD
BRANCH   2  16
ATOM      6  C1  UNL     1       2.042  -7.174  -7.893  0.00  0.00    +0.045 C 
ATOM      7  C2  UNL     1       2.314  -5.790  -8.407  0.00  0.00    -0.033 A 
ATOM      8  C3  UNL     1       1.882  -4.700  -7.756  0.00  0.00    +0.096 A 
ATOM      9  C4  UNL     1       2.128  -3.329  -8.223  0.00  0.00    +0.337 A 
ATOM     10  O1  UNL     1       1.696  -2.368  -7.595  0.00  0.00    -0.245 OA
ATOM     11  O2  UNL     1       2.866  -3.183  -9.387  0.00  0.00    -0.422 OA
ATOM     12  C5  UNL     1       3.319  -4.305 -10.111  0.00  0.00    +0.141 A 
ATOM     13  C6  UNL     1       3.061  -5.600  -9.659  0.00  0.00    +0.021 A 
ATOM     14  C7  UNL     1       3.526  -6.657 -10.442  0.00  0.00    +0.013 A 
ATOM     15  C8  UNL     1       4.193  -6.414 -11.650  0.00  0.00    +0.024 A 
ATOM     16  C9  UNL     1       4.431  -5.113 -12.100  0.00  0.00    +0.037 A 
ATOM     17  C10 UNL     1       4.016  -4.046 -11.300  0.00  0.00    +0.070 A 
ENDBRANCH   2  16
ENDBRANCH   1   3
BRANCH   1  18
ATOM     18  N2  UNL     1       6.854  -4.337 -15.103  0.00  0.00    -0.302 N 
ATOM     19  C17 UNL     1       7.380  -3.244 -15.759  0.00  0.00    +0.234 C 
ATOM     20  O4  UNL     1       6.955  -2.866 -16.847  0.00  0.00    -0.274 OA
ATOM     21  H19 UNL     1       7.010  -4.439 -14.113  0.00  0.00    +0.150 HD
BRANCH  19  22
ATOM     22  C18 UNL     1       8.537  -2.533 -15.013  0.00  0.00    +0.159 C 
BRANCH  22  23
ATOM     23  N3  UNL     1       9.111  -3.410 -13.991  0.00  0.00    -0.303 N 
ATOM     24  C23 UNL     1       9.482  -2.897 -12.763  0.00  0.00    +0.230 C 
ATOM     25  O5  UNL     1       9.423  -1.696 -12.505  0.00  0.00    -0.274 OA
ATOM     26  H30 UNL     1       9.245  -4.391 -14.181  0.00  0.00    +0.149 HD
BRANCH  24  27
ATOM     27  C24 UNL     1       9.964  -3.933 -11.720  0.00  0.00    +0.138 C 
BRANCH  27  28
ATOM     28  N4  UNL     1       9.314  -3.676 -10.420  0.00  0.00    -0.320 NA
ATOM     29  H41 UNL     1       8.305  -3.622 -10.576  0.00  0.00    +0.119 HD
ATOM     30  H42 UNL     1       9.443  -4.467  -9.796  0.00  0.00    +0.119 HD
ENDBRANCH  27  28
BRANCH  27  31
ATOM     31  C25 UNL     1       9.731  -5.371 -12.209  0.00  0.00    +0.031 C 
BRANCH  31  32
ATOM     32  C26 UNL     1       9.047  -6.294 -11.174  0.00  0.00    -0.015 C 
ATOM     33  C27 UNL     1       7.668  -6.786 -11.611  0.00  0.00    +0.007 C 
ATOM     34  C28 UNL     1       9.946  -7.499 -10.880  0.00  0.00    +0.007 C 
ENDBRANCH  31  32
ENDBRANCH  27  31
ENDBRANCH  24  27
ENDBRANCH  22  23
BRANCH  22  35
ATOM     35  C19 UNL     1       9.604  -1.939 -15.955  0.00  0.00    +0.034 C 
BRANCH  35  36
ATOM     36  C20 UNL     1       9.640  -0.416 -16.232  0.00  0.00    -0.015 C 
ATOM     37  C21 UNL     1       9.629   0.431 -14.959  0.00  0.00    +0.007 C 
ATOM     38  C22 UNL     1       8.574   0.075 -17.207  0.00  0.00    +0.007 C 
ENDBRANCH  35  36
ENDBRANCH  22  35
ENDBRANCH  19  22
ENDBRANCH   1  18
BRANCH   1  39
ATOM     39  C13 UNL     1       6.266  -6.472 -16.211  0.00  0.00    +0.034 C 
BRANCH  39  40
ATOM     40  C14 UNL     1       7.258  -7.247 -15.311  0.00  0.00    -0.015 C 
ATOM     41  C15 UNL     1       6.676  -8.561 -14.792  0.00  0.00    +0.007 C 
ATOM     42  C16 UNL     1       8.619  -7.491 -15.964  0.00  0.00    +0.007 C 
ENDBRANCH  39  40
ENDBRANCH   1  39
TORSDOF 13
ENDMDL
MODEL 12
REMARK VINA RESULT:      -7.4      1.329      1.827
REMARK  Name = LLL-AMC_min.pdb
REMARK  20 active torsions:
REMARK  status: ('A' for Active; 'I' for Inactive)
REMARK    1  A    between atoms: C1_1  and  C2_2
REMARK    2  A    between atoms: C9_11  and  N1_13
REMARK    3  A    between atoms: C11_14  and  C12_16
REMARK    4  A    between atoms: C12_16  and  C13_17
REMARK    5  A    between atoms: C12_16  and  N2_21
REMARK    6  A    between atoms: C13_17  and  C14_18
REMARK    7  A    between atoms: C14_18  and  C15_19
REMARK    8  A    between atoms: C14_18  and  C16_20
REMARK    9  A    between atoms: C17_22  and  C18_24
REMARK   10  A    between atoms: C18_24  and  C19_25
REMARK   11  A    between atoms: C18_24  and  N3_29
REMARK   12  A    between atoms: C19_25  and  C20_26
REMARK   13  A    between atoms: C20_26  and  C21_27
REMARK   14  A    between atoms: C20_26  and  C22_28
REMARK   15  A    between atoms: C23_30  and  C24_32
REMARK   16  A    between atoms: C24_32  and  C25_33
REMARK   17  A    between atoms: C24_32  and  N4_37
REMARK   18  A    between atoms: C25_33  and  C26_34
REMARK   19  A    between atoms: C26_34  and  C27_35
REMARK   20  A    between atoms: C26_34  and  C28_36
REMARK                            x       y       z     vdW  Elec       q    Type
REMARK                         _______ _______ _______ _____ _____    ______ ____
ROOT
ATOM      1  C12 UNL     1       5.416  -5.544  -8.093  0.00  0.00    +0.159 C 
ENDROOT
BRANCH   1   3
ATOM      2  N1  UNL     1       5.379  -5.154 -10.537  0.00  0.00    -0.284 N 
ATOM      3  C11 UNL     1       6.101  -4.985  -9.361  0.00  0.00    +0.238 C 
ATOM      4  O3  UNL     1       7.188  -4.411  -9.277  0.00  0.00    -0.273 OA
ATOM      5  H8  UNL     1       4.398  -5.396 -10.461  0.00  0.00    +0.155 HD
BRANCH   2  16
ATOM      6  C1  UNL     1       7.155  -3.081 -16.600  0.00  0.00    +0.045 C 
ATOM      7  C2  UNL     1       7.423  -4.336 -15.821  0.00  0.00    -0.033 A 
ATOM      8  C3  UNL     1       8.129  -5.350 -16.344  0.00  0.00    +0.096 A 
ATOM      9  C4  UNL     1       8.416  -6.594 -15.616  0.00  0.00    +0.337 A 
ATOM     10  O1  UNL     1       9.054  -7.496 -16.148  0.00  0.00    -0.245 OA
ATOM     11  O2  UNL     1       7.940  -6.689 -14.318  0.00  0.00    -0.422 OA
ATOM     12  C5  UNL     1       7.176  -5.653 -13.742  0.00  0.00    +0.141 A 
ATOM     13  C6  UNL     1       6.900  -4.486 -14.455  0.00  0.00    +0.021 A 
ATOM     14  C7  UNL     1       6.121  -3.516 -13.823  0.00  0.00    +0.013 A 
ATOM     15  C8  UNL     1       5.613  -3.734 -12.536  0.00  0.00    +0.024 A 
ATOM     16  C9  UNL     1       5.882  -4.914 -11.838  0.00  0.00    +0.037 A 
ATOM     17  C10 UNL     1       6.703  -5.870 -12.440  0.00  0.00    +0.070 A 
ENDBRANCH   2  16
ENDBRANCH   1   3
BRANCH   1  18
ATOM     18  N2  UNL     1       4.001  -5.714  -8.421  0.00  0.00    -0.302 N 
ATOM     19  C17 UNL     1       3.149  -4.632  -8.484  0.00  0.00    +0.234 C 
ATOM     20  O4  UNL     1       3.532  -3.483  -8.282  0.00  0.00    -0.274 OA
ATOM     21  H19 UNL     1       3.736  -6.576  -8.871  0.00  0.00    +0.150 HD
BRANCH  19  22
ATOM     22  C18 UNL     1       1.680  -4.981  -8.835  0.00  0.00    +0.159 C 
BRANCH  22  23
ATOM     23  N3  UNL     1       1.622  -5.870  -9.996  0.00  0.00    -0.303 N 
ATOM     24  C23 UNL     1       2.007  -5.412 -11.242  0.00  0.00    +0.230 C 
ATOM     25  O5  UNL     1       2.333  -4.244 -11.444  0.00  0.00    -0.274 OA
ATOM     26  H30 UNL     1       1.294  -6.818  -9.895  0.00  0.00    +0.149 HD
BRANCH  24  27
ATOM     27  C24 UNL     1       2.018  -6.469 -12.372  0.00  0.00    +0.138 C 
BRANCH  27  28
ATOM     28  N4  UNL     1       1.453  -7.740 -11.875  0.00  0.00    -0.320 NA
ATOM     29  H41 UNL     1       2.228  -8.387 -11.710  0.00  0.00    +0.119 HD
ATOM     30  H42 UNL     1       1.022  -7.605 -10.965  0.00  0.00    +0.119 HD
ENDBRANCH  27  28
BRANCH  27  31
ATOM     31  C25 UNL     1       1.287  -5.961 -13.624  0.00  0.00    +0.031 C 
BRANCH  31  32
ATOM     32  C26 UNL     1       2.099  -6.085 -14.933  0.00  0.00    -0.015 C 
ATOM     33  C27 UNL     1       3.611  -6.101 -14.716  0.00  0.00    +0.007 C 
ATOM     34  C28 UNL     1       1.680  -7.351 -15.686  0.00  0.00    +0.007 C 
ENDBRANCH  31  32
ENDBRANCH  27  31
ENDBRANCH  24  27
ENDBRANCH  22  23
BRANCH  22  35
ATOM     35  C19 UNL     1       0.871  -5.513  -7.636  0.00  0.00    +0.034 C 
BRANCH  35  36
ATOM     36  C20 UNL     1       0.229  -4.528  -6.628  0.00  0.00    -0.015 C 
ATOM     37  C21 UNL     1      -1.204  -4.900  -6.247  0.00  0.00    +0.007 C 
ATOM     38  C22 UNL     1       0.307  -3.061  -7.039  0.00  0.00    +0.007 C 
ENDBRANCH  35  36
ENDBRANCH  22  35
ENDBRANCH  19  22
ENDBRANCH   1  18
BRANCH   1  39
ATOM     39  C13 UNL     1       6.063  -6.888  -7.714  0.00  0.00    +0.034 C 
BRANCH  39  40
ATOM     40  C14 UNL     1       6.053  -7.273  -6.216  0.00  0.00    -0.015 C 
ATOM     41  C15 UNL     1       5.104  -8.432  -5.913  0.00  0.00    +0.007 C 
ATOM     42  C16 UNL     1       7.442  -7.563  -5.646  0.00  0.00    +0.007 C 
ENDBRANCH  39  40
ENDBRANCH   1  39
TORSDOF 13
ENDMDL
MODEL 13
REMARK VINA RESULT:      -7.3      1.935      4.591
REMARK  Name = LLL-AMC_min.pdb
REMARK  20 active torsions:
REMARK  status: ('A' for Active; 'I' for Inactive)
REMARK    1  A    between atoms: C1_1  and  C2_2
REMARK    2  A    between atoms: C9_11  and  N1_13
REMARK    3  A    between atoms: C11_14  and  C12_16
REMARK    4  A    between atoms: C12_16  and  C13_17
REMARK    5  A    between atoms: C12_16  and  N2_21
REMARK    6  A    between atoms: C13_17  and  C14_18
REMARK    7  A    between atoms: C14_18  and  C15_19
REMARK    8  A    between atoms: C14_18  and  C16_20
REMARK    9  A    between atoms: C17_22  and  C18_24
REMARK   10  A    between atoms: C18_24  and  C19_25
REMARK   11  A    between atoms: C18_24  and  N3_29
REMARK   12  A    between atoms: C19_25  and  C20_26
REMARK   13  A    between atoms: C20_26  and  C21_27
REMARK   14  A    between atoms: C20_26  and  C22_28
REMARK   15  A    between atoms: C23_30  and  C24_32
REMARK   16  A    between atoms: C24_32  and  C25_33
REMARK   17  A    between atoms: C24_32  and  N4_37
REMARK   18  A    between atoms: C25_33  and  C26_34
REMARK   19  A    between atoms: C26_34  and  C27_35
REMARK   20  A    between atoms: C26_34  and  C28_36
REMARK                            x       y       z     vdW  Elec       q    Type
REMARK                         _______ _______ _______ _____ _____    ______ ____
ROOT
ATOM      1  C12 UNL     1       2.831  -5.066  -9.734  0.00  0.00    +0.159 C 
ENDROOT
BRANCH   1   3
ATOM      2  N1  UNL     1       4.311  -5.181 -11.715  0.00  0.00    -0.284 N 
ATOM      3  C11 UNL     1       3.444  -4.382 -10.977  0.00  0.00    +0.238 C 
ATOM      4  O3  UNL     1       3.130  -3.226 -11.269  0.00  0.00    -0.273 OA
ATOM      5  H8  UNL     1       4.297  -6.180 -11.544  0.00  0.00    +0.155 HD
BRANCH   2  16
ATOM      6  C1  UNL     1       7.613  -3.687 -17.289  0.00  0.00    +0.045 C 
ATOM      7  C2  UNL     1       7.791  -3.295 -15.850  0.00  0.00    -0.033 A 
ATOM      8  C3  UNL     1       8.803  -2.508 -15.455  0.00  0.00    +0.096 A 
ATOM      9  C4  UNL     1       9.012  -2.099 -14.059  0.00  0.00    +0.337 A 
ATOM     10  O1  UNL     1       9.963  -1.390 -13.752  0.00  0.00    -0.245 OA
ATOM     11  O2  UNL     1       8.088  -2.546 -13.128  0.00  0.00    -0.422 OA
ATOM     12  C5  UNL     1       7.023  -3.393 -13.501  0.00  0.00    +0.141 A 
ATOM     13  C6  UNL     1       6.852  -3.783 -14.829  0.00  0.00    +0.021 A 
ATOM     14  C7  UNL     1       5.786  -4.637 -15.115  0.00  0.00    +0.013 A 
ATOM     15  C8  UNL     1       4.951  -5.105 -14.092  0.00  0.00    +0.024 A 
ATOM     16  C9  UNL     1       5.143  -4.720 -12.762  0.00  0.00    +0.037 A 
ATOM     17  C10 UNL     1       6.174  -3.825 -12.471  0.00  0.00    +0.070 A 
ENDBRANCH   2  16
ENDBRANCH   1   3
BRANCH   1  18
ATOM     18  N2  UNL     1       3.834  -6.002  -9.232  0.00  0.00    -0.302 N 
ATOM     19  C17 UNL     1       5.023  -5.555  -8.696  0.00  0.00    +0.234 C 
ATOM     20  O4  UNL     1       5.291  -4.360  -8.604  0.00  0.00    -0.274 OA
ATOM     21  H19 UNL     1       3.524  -6.939  -9.025  0.00  0.00    +0.150 HD
BRANCH  19  22
ATOM     22  C18 UNL     1       5.984  -6.672  -8.217  0.00  0.00    +0.159 C 
BRANCH  22  23
ATOM     23  N3  UNL     1       7.192  -6.704  -9.044  0.00  0.00    -0.303 N 
ATOM     24  C23 UNL     1       7.123  -7.117 -10.361  0.00  0.00    +0.230 C 
ATOM     25  O5  UNL     1       6.085  -7.539 -10.866  0.00  0.00    -0.274 OA
ATOM     26  H30 UNL     1       8.082  -6.435  -8.653  0.00  0.00    +0.149 HD
BRANCH  24  27
ATOM     27  C24 UNL     1       8.435  -6.998 -11.171  0.00  0.00    +0.138 C 
BRANCH  27  28
ATOM     28  N4  UNL     1       9.547  -7.610 -10.417  0.00  0.00    -0.320 NA
ATOM     29  H41 UNL     1       9.184  -7.917  -9.511  0.00  0.00    +0.119 HD
ATOM     30  H42 UNL     1       9.863  -8.458 -10.877  0.00  0.00    +0.119 HD
ENDBRANCH  27  28
BRANCH  27  31
ATOM     31  C25 UNL     1       8.285  -7.605 -12.574  0.00  0.00    +0.031 C 
BRANCH  31  32
ATOM     32  C26 UNL     1       8.555  -6.615 -13.732  0.00  0.00    -0.015 C 
ATOM     33  C27 UNL     1       9.903  -5.904 -13.627  0.00  0.00    +0.007 C 
ATOM     34  C28 UNL     1       8.470  -7.350 -15.073  0.00  0.00    +0.007 C 
ENDBRANCH  31  32
ENDBRANCH  27  31
ENDBRANCH  24  27
ENDBRANCH  22  23
BRANCH  22  35
ATOM     35  C19 UNL     1       6.295  -6.612  -6.709  0.00  0.00    +0.034 C 
BRANCH  35  36
ATOM     36  C20 UNL     1       5.502  -7.494  -5.713  0.00  0.00    -0.015 C 
ATOM     37  C21 UNL     1       4.345  -8.252  -6.365  0.00  0.00    +0.007 C 
ATOM     38  C22 UNL     1       5.021  -6.762  -4.464  0.00  0.00    +0.007 C 
ENDBRANCH  35  36
ENDBRANCH  22  35
ENDBRANCH  19  22
ENDBRANCH   1  18
BRANCH   1  39
ATOM     39  C13 UNL     1       2.492  -3.997  -8.679  0.00  0.00    +0.034 C 
BRANCH  39  40
ATOM     40  C14 UNL     1       1.542  -4.419  -7.534  0.00  0.00    -0.015 C 
ATOM     41  C15 UNL     1       2.282  -5.063  -6.363  0.00  0.00    +0.007 C 
ATOM     42  C16 UNL     1       0.641  -3.288  -7.035  0.00  0.00    +0.007 C 
ENDBRANCH  39  40
ENDBRANCH   1  39
TORSDOF 13
ENDMDL
MODEL 14
REMARK VINA RESULT:      -7.3      2.958      8.647
REMARK  Name = LLL-AMC_min.pdb
REMARK  20 active torsions:
REMARK  status: ('A' for Active; 'I' for Inactive)
REMARK    1  A    between atoms: C1_1  and  C2_2
REMARK    2  A    between atoms: C9_11  and  N1_13
REMARK    3  A    between atoms: C11_14  and  C12_16
REMARK    4  A    between atoms: C12_16  and  C13_17
REMARK    5  A    between atoms: C12_16  and  N2_21
REMARK    6  A    between atoms: C13_17  and  C14_18
REMARK    7  A    between atoms: C14_18  and  C15_19
REMARK    8  A    between atoms: C14_18  and  C16_20
REMARK    9  A    between atoms: C17_22  and  C18_24
REMARK   10  A    between atoms: C18_24  and  C19_25
REMARK   11  A    between atoms: C18_24  and  N3_29
REMARK   12  A    between atoms: C19_25  and  C20_26
REMARK   13  A    between atoms: C20_26  and  C21_27
REMARK   14  A    between atoms: C20_26  and  C22_28
REMARK   15  A    between atoms: C23_30  and  C24_32
REMARK   16  A    between atoms: C24_32  and  C25_33
REMARK   17  A    between atoms: C24_32  and  N4_37
REMARK   18  A    between atoms: C25_33  and  C26_34
REMARK   19  A    between atoms: C26_34  and  C27_35
REMARK   20  A    between atoms: C26_34  and  C28_36
REMARK                            x       y       z     vdW  Elec       q    Type
REMARK                         _______ _______ _______ _____ _____    ______ ____
ROOT
ATOM      1  C12 UNL     1       4.428  -5.620 -13.236  0.00  0.00    +0.159 C 
ENDROOT
BRANCH   1   3
ATOM      2  N1  UNL     1       4.549  -5.449 -10.770  0.00  0.00    -0.284 N 
ATOM      3  C11 UNL     1       4.458  -6.313 -11.855  0.00  0.00    +0.238 C 
ATOM      4  O3  UNL     1       4.369  -7.540 -11.775  0.00  0.00    -0.273 OA
ATOM      5  H8  UNL     1       4.352  -4.468 -10.927  0.00  0.00    +0.155 HD
BRANCH   2  16
ATOM      6  C1  UNL     1       4.775  -6.765  -4.257  0.00  0.00    +0.045 C 
ATOM      7  C2  UNL     1       5.698  -7.070  -5.402  0.00  0.00    -0.033 A 
ATOM      8  C3  UNL     1       6.862  -7.709  -5.216  0.00  0.00    +0.096 A 
ATOM      9  C4  UNL     1       7.792  -8.029  -6.308  0.00  0.00    +0.337 A 
ATOM     10  O1  UNL     1       8.851  -8.602  -6.078  0.00  0.00    -0.245 OA
ATOM     11  O2  UNL     1       7.411  -7.659  -7.588  0.00  0.00    -0.422 OA
ATOM     12  C5  UNL     1       6.205  -6.967  -7.820  0.00  0.00    +0.141 A 
ATOM     13  C6  UNL     1       5.343  -6.657  -6.767  0.00  0.00    +0.021 A 
ATOM     14  C7  UNL     1       4.178  -5.954  -7.076  0.00  0.00    +0.013 A 
ATOM     15  C8  UNL     1       3.916  -5.548  -8.392  0.00  0.00    +0.024 A 
ATOM     16  C9  UNL     1       4.795  -5.849  -9.435  0.00  0.00    +0.037 A 
ATOM     17  C10 UNL     1       5.938  -6.598  -9.147  0.00  0.00    +0.070 A 
ENDBRANCH   2  16
ENDBRANCH   1   3
BRANCH   1  18
ATOM     18  N2  UNL     1       5.819  -5.366 -13.608  0.00  0.00    -0.302 N 
ATOM     19  C17 UNL     1       6.401  -4.135 -13.393  0.00  0.00    +0.234 C 
ATOM     20  O4  UNL     1       5.792  -3.204 -12.873  0.00  0.00    -0.274 OA
ATOM     21  H19 UNL     1       6.409  -6.170 -13.752  0.00  0.00    +0.150 HD
BRANCH  19  22
ATOM     22  C18 UNL     1       7.878  -4.023 -13.850  0.00  0.00    +0.159 C 
BRANCH  22  23
ATOM     23  N3  UNL     1       7.957  -3.504 -15.217  0.00  0.00    -0.303 N 
ATOM     24  C23 UNL     1       8.971  -3.920 -16.061  0.00  0.00    +0.230 C 
ATOM     25  O5  UNL     1       9.874  -4.666 -15.689  0.00  0.00    -0.274 OA
ATOM     26  H30 UNL     1       7.280  -2.834 -15.546  0.00  0.00    +0.149 HD
BRANCH  24  27
ATOM     27  C24 UNL     1       8.889  -3.399 -17.515  0.00  0.00    +0.138 C 
BRANCH  27  28
ATOM     28  N4  UNL     1       7.493  -3.465 -17.993  0.00  0.00    -0.320 NA
ATOM     29  H41 UNL     1       6.940  -2.801 -17.445  0.00  0.00    +0.119 HD
ATOM     30  H42 UNL     1       7.431  -3.133 -18.951  0.00  0.00    +0.119 HD
ENDBRANCH  27  28
BRANCH  27  31
ATOM     31  C25 UNL     1       9.476  -1.985 -17.639  0.00  0.00    +0.031 C 
BRANCH  31  32
ATOM     32  C26 UNL     1       8.592  -0.870 -17.033  0.00  0.00    -0.015 C 
ATOM     33  C27 UNL     1       9.353   0.081 -16.111  0.00  0.00    +0.007 C 
ATOM     34  C28 UNL     1       7.929  -0.067 -18.156  0.00  0.00    +0.007 C 
ENDBRANCH  31  32
ENDBRANCH  27  31
ENDBRANCH  24  27
ENDBRANCH  22  23
BRANCH  22  35
ATOM     35  C19 UNL     1       8.771  -3.245 -12.865  0.00  0.00    +0.034 C 
BRANCH  35  36
ATOM     36  C20 UNL     1       9.907  -3.970 -12.103  0.00  0.00    -0.015 C 
ATOM     37  C21 UNL     1       9.926  -5.481 -12.338  0.00  0.00    +0.007 C 
ATOM     38  C22 UNL     1       9.964  -3.664 -10.609  0.00  0.00    +0.007 C 
ENDBRANCH  35  36
ENDBRANCH  22  35
ENDBRANCH  19  22
ENDBRANCH   1  18
BRANCH   1  39
ATOM     39  C13 UNL     1       3.741  -6.545 -14.257  0.00  0.00    +0.034 C 
BRANCH  39  40
ATOM     40  C14 UNL     1       2.344  -6.115 -14.764  0.00  0.00    -0.015 C 
ATOM     41  C15 UNL     1       1.759  -7.098 -15.778  0.00  0.00    +0.007 C 
ATOM     42  C16 UNL     1       1.339  -5.848 -13.644  0.00  0.00    +0.007 C 
ENDBRANCH  39  40
ENDBRANCH   1  39
TORSDOF 13
ENDMDL
MODEL 15
REMARK VINA RESULT:      -7.2      2.400      6.907
REMARK  Name = LLL-AMC_min.pdb
REMARK  20 active torsions:
REMARK  status: ('A' for Active; 'I' for Inactive)
REMARK    1  A    between atoms: C1_1  and  C2_2
REMARK    2  A    between atoms: C9_11  and  N1_13
REMARK    3  A    between atoms: C11_14  and  C12_16
REMARK    4  A    between atoms: C12_16  and  C13_17
REMARK    5  A    between atoms: C12_16  and  N2_21
REMARK    6  A    between atoms: C13_17  and  C14_18
REMARK    7  A    between atoms: C14_18  and  C15_19
REMARK    8  A    between atoms: C14_18  and  C16_20
REMARK    9  A    between atoms: C17_22  and  C18_24
REMARK   10  A    between atoms: C18_24  and  C19_25
REMARK   11  A    between atoms: C18_24  and  N3_29
REMARK   12  A    between atoms: C19_25  and  C20_26
REMARK   13  A    between atoms: C20_26  and  C21_27
REMARK   14  A    between atoms: C20_26  and  C22_28
REMARK   15  A    between atoms: C23_30  and  C24_32
REMARK   16  A    between atoms: C24_32  and  C25_33
REMARK   17  A    between atoms: C24_32  and  N4_37
REMARK   18  A    between atoms: C25_33  and  C26_34
REMARK   19  A    between atoms: C26_34  and  C27_35
REMARK   20  A    between atoms: C26_34  and  C28_36
REMARK                            x       y       z     vdW  Elec       q    Type
REMARK                         _______ _______ _______ _____ _____    ______ ____
ROOT
ATOM      1  C12 UNL     1       1.905  -5.021  -8.017  0.00  0.00    +0.159 C 
ENDROOT
BRANCH   1   3
ATOM      2  N1  UNL     1       3.914  -5.894  -6.866  0.00  0.00    -0.284 N 
ATOM      3  C11 UNL     1       2.762  -6.226  -7.569  0.00  0.00    +0.238 C 
ATOM      4  O3  UNL     1       2.389  -7.376  -7.811  0.00  0.00    -0.273 OA
ATOM      5  H8  UNL     1       3.990  -4.954  -6.497  0.00  0.00    +0.155 HD
BRANCH   2  16
ATOM      6  C1  UNL     1       8.315 -10.164  -4.296  0.00  0.00    +0.045 C 
ATOM      7  C2  UNL     1       8.193  -9.491  -5.632  0.00  0.00    -0.033 A 
ATOM      8  C3  UNL     1       9.108  -9.671  -6.597  0.00  0.00    +0.096 A 
ATOM      9  C4  UNL     1       9.026  -9.033  -7.918  0.00  0.00    +0.337 A 
ATOM     10  O1  UNL     1       9.899  -9.221  -8.758  0.00  0.00    -0.245 OA
ATOM     11  O2  UNL     1       7.925  -8.227  -8.161  0.00  0.00    -0.422 OA
ATOM     12  C5  UNL     1       6.954  -7.996  -7.164  0.00  0.00    +0.141 A 
ATOM     13  C6  UNL     1       7.059  -8.598  -5.910  0.00  0.00    +0.021 A 
ATOM     14  C7  UNL     1       6.068  -8.305  -4.972  0.00  0.00    +0.013 A 
ATOM     15  C8  UNL     1       5.034  -7.410  -5.280  0.00  0.00    +0.024 A 
ATOM     16  C9  UNL     1       4.950  -6.800  -6.535  0.00  0.00    +0.037 A 
ATOM     17  C10 UNL     1       5.906  -7.126  -7.499  0.00  0.00    +0.070 A 
ENDBRANCH   2  16
ENDBRANCH   1   3
BRANCH   1  18
ATOM     18  N2  UNL     1       2.140  -4.847  -9.449  0.00  0.00    -0.302 N 
ATOM     19  C17 UNL     1       3.343  -4.366  -9.921  0.00  0.00    +0.234 C 
ATOM     20  O4  UNL     1       4.271  -4.074  -9.171  0.00  0.00    -0.274 OA
ATOM     21  H19 UNL     1       1.530  -5.346 -10.077  0.00  0.00    +0.150 HD
BRANCH  19  22
ATOM     22  C18 UNL     1       3.431  -4.232 -11.462  0.00  0.00    +0.159 C 
BRANCH  22  23
ATOM     23  N3  UNL     1       4.659  -4.851 -11.966  0.00  0.00    -0.303 N 
ATOM     24  C23 UNL     1       5.571  -4.102 -12.685  0.00  0.00    +0.230 C 
ATOM     25  O5  UNL     1       5.364  -2.930 -12.994  0.00  0.00    -0.274 OA
ATOM     26  H30 UNL     1       4.840  -5.828 -11.799  0.00  0.00    +0.149 HD
BRANCH  24  27
ATOM     27  C24 UNL     1       6.884  -4.826 -13.064  0.00  0.00    +0.138 C 
BRANCH  27  28
ATOM     28  N4  UNL     1       6.595  -5.931 -14.000  0.00  0.00    -0.320 NA
ATOM     29  H41 UNL     1       7.265  -6.682 -13.818  0.00  0.00    +0.119 HD
ATOM     30  H42 UNL     1       5.685  -6.335 -13.802  0.00  0.00    +0.119 HD
ENDBRANCH  27  28
BRANCH  27  31
ATOM     31  C25 UNL     1       7.923  -3.846 -13.630  0.00  0.00    +0.031 C 
BRANCH  31  32
ATOM     32  C26 UNL     1       8.107  -3.925 -15.163  0.00  0.00    -0.015 C 
ATOM     33  C27 UNL     1       7.322  -2.861 -15.929  0.00  0.00    +0.007 C 
ATOM     34  C28 UNL     1       9.594  -3.809 -15.513  0.00  0.00    +0.007 C 
ENDBRANCH  31  32
ENDBRANCH  27  31
ENDBRANCH  24  27
ENDBRANCH  22  23
BRANCH  22  35
ATOM     35  C19 UNL     1       2.170  -4.726 -12.197  0.00  0.00    +0.034 C 
BRANCH  35  36
ATOM     36  C20 UNL     1       2.172  -6.100 -12.911  0.00  0.00    -0.015 C 
ATOM     37  C21 UNL     1       1.817  -6.011 -14.396  0.00  0.00    +0.007 C 
ATOM     38  C22 UNL     1       1.328  -7.171 -12.226  0.00  0.00    +0.007 C 
ENDBRANCH  35  36
ENDBRANCH  22  35
ENDBRANCH  19  22
ENDBRANCH   1  18
BRANCH   1  39
ATOM     39  C13 UNL     1       0.421  -5.315  -7.730  0.00  0.00    +0.034 C 
BRANCH  39  40
ATOM     40  C14 UNL     1      -0.247  -4.508  -6.592  0.00  0.00    -0.015 C 
ATOM     41  C15 UNL     1      -0.801  -3.167  -7.070  0.00  0.00    +0.007 C 
ATOM     42  C16 UNL     1      -1.324  -5.288  -5.836  0.00  0.00    +0.007 C 
ENDBRANCH  39  40
ENDBRANCH   1  39
TORSDOF 13
ENDMDL
MODEL 16
REMARK VINA RESULT:      -7.1      2.774      8.670
REMARK  Name = LLL-AMC_min.pdb
REMARK  20 active torsions:
REMARK  status: ('A' for Active; 'I' for Inactive)
REMARK    1  A    between atoms: C1_1  and  C2_2
REMARK    2  A    between atoms: C9_11  and  N1_13
REMARK    3  A    between atoms: C11_14  and  C12_16
REMARK    4  A    between atoms: C12_16  and  C13_17
REMARK    5  A    between atoms: C12_16  and  N2_21
REMARK    6  A    between atoms: C13_17  and  C14_18
REMARK    7  A    between atoms: C14_18  and  C15_19
REMARK    8  A    between atoms: C14_18  and  C16_20
REMARK    9  A    between atoms: C17_22  and  C18_24
REMARK   10  A    between atoms: C18_24  and  C19_25
REMARK   11  A    between atoms: C18_24  and  N3_29
REMARK   12  A    between atoms: C19_25  and  C20_26
REMARK   13  A    between atoms: C20_26  and  C21_27
REMARK   14  A    between atoms: C20_26  and  C22_28
REMARK   15  A    between atoms: C23_30  and  C24_32
REMARK   16  A    between atoms: C24_32  and  C25_33
REMARK   17  A    between atoms: C24_32  and  N4_37
REMARK   18  A    between atoms: C25_33  and  C26_34
REMARK   19  A    between atoms: C26_34  and  C27_35
REMARK   20  A    between atoms: C26_34  and  C28_36
REMARK                            x       y       z     vdW  Elec       q    Type
REMARK                         _______ _______ _______ _____ _____    ______ ____
ROOT
ATOM      1  C12 UNL     1       7.694  -3.558 -15.711  0.00  0.00    +0.159 C 
ENDROOT
BRANCH   1   3
ATOM      2  N1  UNL     1       6.489  -4.533 -13.781  0.00  0.00    -0.284 N 
ATOM      3  C11 UNL     1       7.277  -3.477 -14.225  0.00  0.00    +0.238 C 
ATOM      4  O3  UNL     1       7.669  -2.544 -13.521  0.00  0.00    -0.273 OA
ATOM      5  H8  UNL     1       6.445  -5.367 -14.356  0.00  0.00    +0.155 HD
BRANCH   2  16
ATOM      6  C1  UNL     1       2.545  -4.174  -8.441  0.00  0.00    +0.045 C 
ATOM      7  C2  UNL     1       3.927  -4.716  -8.666  0.00  0.00    -0.033 A 
ATOM      8  C3  UNL     1       4.649  -5.239  -7.664  0.00  0.00    +0.096 A 
ATOM      9  C4  UNL     1       6.004  -5.781  -7.841  0.00  0.00    +0.337 A 
ATOM     10  O1  UNL     1       6.625  -6.234  -6.886  0.00  0.00    -0.245 OA
ATOM     11  O2  UNL     1       6.529  -5.758  -9.123  0.00  0.00    -0.422 OA
ATOM     12  C5  UNL     1       5.809  -5.197 -10.198  0.00  0.00    +0.141 A 
ATOM     13  C6  UNL     1       4.530  -4.672 -10.006  0.00  0.00    +0.021 A 
ATOM     14  C7  UNL     1       3.891  -4.117 -11.115  0.00  0.00    +0.013 A 
ATOM     15  C8  UNL     1       4.534  -4.063 -12.359  0.00  0.00    +0.024 A 
ATOM     16  C9  UNL     1       5.822  -4.577 -12.534  0.00  0.00    +0.037 A 
ATOM     17  C10 UNL     1       6.451  -5.182 -11.444  0.00  0.00    +0.070 A 
ENDBRANCH   2  16
ENDBRANCH   1   3
BRANCH   1  18
ATOM     18  N2  UNL     1       7.008  -4.719 -16.277  0.00  0.00    -0.302 N 
ATOM     19  C17 UNL     1       7.584  -5.971 -16.250  0.00  0.00    +0.234 C 
ATOM     20  O4  UNL     1       8.686  -6.175 -15.746  0.00  0.00    -0.274 OA
ATOM     21  H19 UNL     1       6.013  -4.639 -16.418  0.00  0.00    +0.150 HD
BRANCH  19  22
ATOM     22  C18 UNL     1       6.734  -7.093 -16.898  0.00  0.00    +0.159 C 
BRANCH  22  23
ATOM     23  N3  UNL     1       5.332  -6.978 -16.493  0.00  0.00    -0.303 N 
ATOM     24  C23 UNL     1       4.917  -7.479 -15.273  0.00  0.00    +0.230 C 
ATOM     25  O5  UNL     1       5.670  -8.097 -14.524  0.00  0.00    -0.274 OA
ATOM     26  H30 UNL     1       4.661  -6.542 -17.106  0.00  0.00    +0.149 HD
BRANCH  24  27
ATOM     27  C24 UNL     1       3.443  -7.197 -14.899  0.00  0.00    +0.138 C 
BRANCH  27  28
ATOM     28  N4  UNL     1       2.548  -8.051 -15.705  0.00  0.00    -0.320 NA
ATOM     29  H41 UNL     1       1.591  -7.908 -15.373  0.00  0.00    +0.119 HD
ATOM     30  H42 UNL     1       2.541  -7.743 -16.673  0.00  0.00    +0.119 HD
ENDBRANCH  27  28
BRANCH  27  31
ATOM     31  C25 UNL     1       3.204  -7.370 -13.391  0.00  0.00    +0.031 C 
BRANCH  31  32
ATOM     32  C26 UNL     1       1.784  -6.980 -12.920  0.00  0.00    -0.015 C 
ATOM     33  C27 UNL     1       1.640  -6.913 -11.400  0.00  0.00    +0.007 C 
ATOM     34  C28 UNL     1       1.388  -5.631 -13.528  0.00  0.00    +0.007 C 
ENDBRANCH  31  32
ENDBRANCH  27  31
ENDBRANCH  24  27
ENDBRANCH  22  23
BRANCH  22  35
ATOM     35  C19 UNL     1       6.907  -7.193 -18.426  0.00  0.00    +0.034 C 
BRANCH  35  36
ATOM     36  C20 UNL     1       7.620  -8.416 -19.053  0.00  0.00    -0.015 C 
ATOM     37  C21 UNL     1       6.785  -9.696 -18.998  0.00  0.00    +0.007 C 
ATOM     38  C22 UNL     1       9.025  -8.673 -18.517  0.00  0.00    +0.007 C 
ENDBRANCH  35  36
ENDBRANCH  22  35
ENDBRANCH  19  22
ENDBRANCH   1  18
BRANCH   1  39
ATOM     39  C13 UNL     1       7.277  -2.262 -16.430  0.00  0.00    +0.034 C 
BRANCH  39  40
ATOM     40  C14 UNL     1       8.405  -1.426 -17.079  0.00  0.00    -0.015 C 
ATOM     41  C15 UNL     1       7.876  -0.405 -18.084  0.00  0.00    +0.007 C 
ATOM     42  C16 UNL     1       9.325  -0.744 -16.065  0.00  0.00    +0.007 C 
ENDBRANCH  39  40
ENDBRANCH   1  39
TORSDOF 13
ENDMDL
MODEL 17
REMARK VINA RESULT:      -7.0      1.461      2.115
REMARK  Name = LLL-AMC_min.pdb
REMARK  20 active torsions:
REMARK  status: ('A' for Active; 'I' for Inactive)
REMARK    1  A    between atoms: C1_1  and  C2_2
REMARK    2  A    between atoms: C9_11  and  N1_13
REMARK    3  A    between atoms: C11_14  and  C12_16
REMARK    4  A    between atoms: C12_16  and  C13_17
REMARK    5  A    between atoms: C12_16  and  N2_21
REMARK    6  A    between atoms: C13_17  and  C14_18
REMARK    7  A    between atoms: C14_18  and  C15_19
REMARK    8  A    between atoms: C14_18  and  C16_20
REMARK    9  A    between atoms: C17_22  and  C18_24
REMARK   10  A    between atoms: C18_24  and  C19_25
REMARK   11  A    between atoms: C18_24  and  N3_29
REMARK   12  A    between atoms: C19_25  and  C20_26
REMARK   13  A    between atoms: C20_26  and  C21_27
REMARK   14  A    between atoms: C20_26  and  C22_28
REMARK   15  A    between atoms: C23_30  and  C24_32
REMARK   16  A    between atoms: C24_32  and  C25_33
REMARK   17  A    between atoms: C24_32  and  N4_37
REMARK   18  A    between atoms: C25_33  and  C26_34
REMARK   19  A    between atoms: C26_34  and  C27_35
REMARK   20  A    between atoms: C26_34  and  C28_36
REMARK                            x       y       z     vdW  Elec       q    Type
REMARK                         _______ _______ _______ _____ _____    ______ ____
ROOT
ATOM      1  C12 UNL     1       5.150  -5.214  -8.035  0.00  0.00    +0.159 C 
ENDROOT
BRANCH   1   3
ATOM      2  N1  UNL     1       5.391  -4.921 -10.481  0.00  0.00    -0.284 N 
ATOM      3  C11 UNL     1       5.976  -4.707  -9.239  0.00  0.00    +0.238 C 
ATOM      4  O3  UNL     1       7.050  -4.130  -9.056  0.00  0.00    -0.273 OA
ATOM      5  H8  UNL     1       4.406  -5.159 -10.507  0.00  0.00    +0.155 HD
BRANCH   2  16
ATOM      6  C1  UNL     1       7.764  -3.153 -16.435  0.00  0.00    +0.045 C 
ATOM      7  C2  UNL     1       8.036  -4.313 -15.521  0.00  0.00    -0.033 A 
ATOM      8  C3  UNL     1       8.890  -5.290 -15.860  0.00  0.00    +0.096 A 
ATOM      9  C4  UNL     1       9.186  -6.441 -14.995  0.00  0.00    +0.337 A 
ATOM     10  O1  UNL     1       9.965  -7.314 -15.362  0.00  0.00    -0.245 OA
ATOM     11  O2  UNL     1       8.553  -6.482 -13.763  0.00  0.00    -0.422 OA
ATOM     12  C5  UNL     1       7.632  -5.485 -13.380  0.00  0.00    +0.141 A 
ATOM     13  C6  UNL     1       7.352  -4.408 -14.223  0.00  0.00    +0.021 A 
ATOM     14  C7  UNL     1       6.415  -3.474 -13.781  0.00  0.00    +0.013 A 
ATOM     15  C8  UNL     1       5.762  -3.642 -12.553  0.00  0.00    +0.024 A 
ATOM     16  C9  UNL     1       6.038  -4.733 -11.725  0.00  0.00    +0.037 A 
ATOM     17  C10 UNL     1       7.012  -5.648 -12.133  0.00  0.00    +0.070 A 
ENDBRANCH   2  16
ENDBRANCH   1   3
BRANCH   1  18
ATOM     18  N2  UNL     1       3.774  -5.365  -8.505  0.00  0.00    -0.302 N 
ATOM     19  C17 UNL     1       2.704  -5.089  -7.680  0.00  0.00    +0.234 C 
ATOM     20  O4  UNL     1       2.851  -4.696  -6.526  0.00  0.00    -0.274 OA
ATOM     21  H19 UNL     1       3.631  -5.393  -9.503  0.00  0.00    +0.150 HD
BRANCH  19  22
ATOM     22  C18 UNL     1       1.312  -5.308  -8.324  0.00  0.00    +0.159 C 
BRANCH  22  23
ATOM     23  N3  UNL     1       1.395  -6.276  -9.420  0.00  0.00    -0.303 N 
ATOM     24  C23 UNL     1       1.859  -5.882 -10.661  0.00  0.00    +0.230 C 
ATOM     25  O5  UNL     1       2.142  -4.714 -10.919  0.00  0.00    -0.274 OA
ATOM     26  H30 UNL     1       1.107  -7.231  -9.277  0.00  0.00    +0.149 HD
BRANCH  24  27
ATOM     27  C24 UNL     1       2.016  -7.011 -11.707  0.00  0.00    +0.138 C 
BRANCH  27  28
ATOM     28  N4  UNL     1       0.957  -8.022 -11.518  0.00  0.00    -0.320 NA
ATOM     29  H41 UNL     1       1.209  -8.597 -10.711  0.00  0.00    +0.119 HD
ATOM     30  H42 UNL     1       0.082  -7.574 -11.261  0.00  0.00    +0.119 HD
ENDBRANCH  27  28
BRANCH  27  31
ATOM     31  C25 UNL     1       2.033  -6.451 -13.138  0.00  0.00    +0.031 C 
BRANCH  31  32
ATOM     32  C26 UNL     1       3.091  -7.096 -14.064  0.00  0.00    -0.015 C 
ATOM     33  C27 UNL     1       2.495  -8.024 -15.120  0.00  0.00    +0.007 C 
ATOM     34  C28 UNL     1       3.912  -6.001 -14.753  0.00  0.00    +0.007 C 
ENDBRANCH  31  32
ENDBRANCH  27  31
ENDBRANCH  24  27
ENDBRANCH  22  23
BRANCH  22  35
ATOM     35  C19 UNL     1       0.209  -5.656  -7.305  0.00  0.00    +0.034 C 
BRANCH  35  36
ATOM     36  C20 UNL     1      -0.866  -4.607  -6.930  0.00  0.00    -0.015 C 
ATOM     37  C21 UNL     1      -0.322  -3.180  -6.863  0.00  0.00    +0.007 C 
ATOM     38  C22 UNL     1      -1.658  -4.936  -5.668  0.00  0.00    +0.007 C 
ENDBRANCH  35  36
ENDBRANCH  22  35
ENDBRANCH  19  22
ENDBRANCH   1  18
BRANCH   1  39
ATOM     39  C13 UNL     1       5.723  -6.559  -7.554  0.00  0.00    +0.034 C 
BRANCH  39  40
ATOM     40  C14 UNL     1       6.131  -6.655  -6.065  0.00  0.00    -0.015 C 
ATOM     41  C15 UNL     1       4.946  -6.955  -5.149  0.00  0.00    +0.007 C 
ATOM     42  C16 UNL     1       7.268  -7.642  -5.801  0.00  0.00    +0.007 C 
ENDBRANCH  39  40
ENDBRANCH   1  39
TORSDOF 13
ENDMDL
MODEL 18
REMARK VINA RESULT:      -6.9      2.112      5.397
REMARK  Name = LLL-AMC_min.pdb
REMARK  20 active torsions:
REMARK  status: ('A' for Active; 'I' for Inactive)
REMARK    1  A    between atoms: C1_1  and  C2_2
REMARK    2  A    between atoms: C9_11  and  N1_13
REMARK    3  A    between atoms: C11_14  and  C12_16
REMARK    4  A    between atoms: C12_16  and  C13_17
REMARK    5  A    between atoms: C12_16  and  N2_21
REMARK    6  A    between atoms: C13_17  and  C14_18
REMARK    7  A    between atoms: C14_18  and  C15_19
REMARK    8  A    between atoms: C14_18  and  C16_20
REMARK    9  A    between atoms: C17_22  and  C18_24
REMARK   10  A    between atoms: C18_24  and  C19_25
REMARK   11  A    between atoms: C18_24  and  N3_29
REMARK   12  A    between atoms: C19_25  and  C20_26
REMARK   13  A    between atoms: C20_26  and  C21_27
REMARK   14  A    between atoms: C20_26  and  C22_28
REMARK   15  A    between atoms: C23_30  and  C24_32
REMARK   16  A    between atoms: C24_32  and  C25_33
REMARK   17  A    between atoms: C24_32  and  N4_37
REMARK   18  A    between atoms: C25_33  and  C26_34
REMARK   19  A    between atoms: C26_34  and  C27_35
REMARK   20  A    between atoms: C26_34  and  C28_36
REMARK                            x       y       z     vdW  Elec       q    Type
REMARK                         _______ _______ _______ _____ _____    ______ ____
ROOT
ATOM      1  C12 UNL     1       4.337  -7.692 -12.921  0.00  0.00    +0.159 C 
ENDROOT
BRANCH   1   3
ATOM      2  N1  UNL     1       5.896  -6.367 -14.314  0.00  0.00    -0.284 N 
ATOM      3  C11 UNL     1       4.655  -6.388 -13.688  0.00  0.00    +0.238 C 
ATOM      4  O3  UNL     1       3.822  -5.481 -13.742  0.00  0.00    -0.273 OA
ATOM      5  H8  UNL     1       6.384  -7.247 -14.430  0.00  0.00    +0.155 HD
BRANCH   2  16
ATOM      6  C1  UNL     1       8.289  -1.388 -18.014  0.00  0.00    +0.045 C 
ATOM      7  C2  UNL     1       8.402  -1.735 -16.558  0.00  0.00    -0.033 A 
ATOM      8  C3  UNL     1       9.132  -0.992 -15.712  0.00  0.00    +0.096 A 
ATOM      9  C4  UNL     1       9.268  -1.295 -14.281  0.00  0.00    +0.337 A 
ATOM     10  O1  UNL     1       9.961  -0.590 -13.556  0.00  0.00    -0.245 OA
ATOM     11  O2  UNL     1       8.578  -2.398 -13.802  0.00  0.00    -0.422 OA
ATOM     12  C5  UNL     1       7.818  -3.216 -14.664  0.00  0.00    +0.141 A 
ATOM     13  C6  UNL     1       7.715  -2.921 -16.024  0.00  0.00    +0.021 A 
ATOM     14  C7  UNL     1       6.960  -3.788 -16.814  0.00  0.00    +0.013 A 
ATOM     15  C8  UNL     1       6.365  -4.928 -16.257  0.00  0.00    +0.024 A 
ATOM     16  C9  UNL     1       6.489  -5.222 -14.897  0.00  0.00    +0.037 A 
ATOM     17  C10 UNL     1       7.198  -4.333 -14.086  0.00  0.00    +0.070 A 
ENDBRANCH   2  16
ENDBRANCH   1   3
BRANCH   1  18
ATOM     18  N2  UNL     1       4.267  -7.338 -11.504  0.00  0.00    -0.302 N 
ATOM     19  C17 UNL     1       5.409  -7.081 -10.775  0.00  0.00    +0.234 C 
ATOM     20  O4  UNL     1       6.529  -7.124 -11.277  0.00  0.00    -0.274 OA
ATOM     21  H19 UNL     1       3.378  -7.011 -11.157  0.00  0.00    +0.150 HD
BRANCH  19  22
ATOM     22  C18 UNL     1       5.166  -6.729  -9.286  0.00  0.00    +0.159 C 
BRANCH  22  23
ATOM     23  N3  UNL     1       3.915  -5.984  -9.128  0.00  0.00    -0.303 N 
ATOM     24  C23 UNL     1       3.940  -4.660  -8.730  0.00  0.00    +0.230 C 
ATOM     25  O5  UNL     1       4.981  -4.084  -8.423  0.00  0.00    -0.274 OA
ATOM     26  H30 UNL     1       3.030  -6.434  -9.300  0.00  0.00    +0.149 HD
BRANCH  24  27
ATOM     27  C24 UNL     1       2.572  -3.939  -8.712  0.00  0.00    +0.138 C 
BRANCH  27  28
ATOM     28  N4  UNL     1       2.400  -3.157  -9.952  0.00  0.00    -0.320 NA
ATOM     29  H41 UNL     1       1.402  -2.962 -10.067  0.00  0.00    +0.119 HD
ATOM     30  H42 UNL     1       2.838  -2.245  -9.860  0.00  0.00    +0.119 HD
ENDBRANCH  27  28
BRANCH  27  31
ATOM     31  C25 UNL     1       1.419  -4.930  -8.489  0.00  0.00    +0.031 C 
BRANCH  31  32
ATOM     32  C26 UNL     1       0.752  -4.832  -7.097  0.00  0.00    -0.015 C 
ATOM     33  C27 UNL     1       1.748  -4.648  -5.953  0.00  0.00    +0.007 C 
ATOM     34  C28 UNL     1      -0.256  -3.678  -7.085  0.00  0.00    +0.007 C 
ENDBRANCH  31  32
ENDBRANCH  27  31
ENDBRANCH  24  27
ENDBRANCH  22  23
BRANCH  22  35
ATOM     35  C19 UNL     1       5.257  -7.945  -8.343  0.00  0.00    +0.034 C 
BRANCH  35  36
ATOM     36  C20 UNL     1       4.310  -8.059  -7.124  0.00  0.00    -0.015 C 
ATOM     37  C21 UNL     1       4.778  -7.247  -5.916  0.00  0.00    +0.007 C 
ATOM     38  C22 UNL     1       3.983  -9.491  -6.708  0.00  0.00    +0.007 C 
ENDBRANCH  35  36
ENDBRANCH  22  35
ENDBRANCH  19  22
ENDBRANCH   1  18
BRANCH   1  39
ATOM     39  C13 UNL     1       2.996  -8.262 -13.417  0.00  0.00    +0.034 C 
BRANCH  39  40
ATOM     40  C14 UNL     1       1.734  -7.900 -12.599  0.00  0.00    -0.015 C 
ATOM     41  C15 UNL     1       0.682  -7.170 -13.433  0.00  0.00    +0.007 C 
ATOM     42  C16 UNL     1       1.105  -9.094 -11.879  0.00  0.00    +0.007 C 
ENDBRANCH  39  40
ENDBRANCH   1  39
TORSDOF 13
ENDMDL
MODEL 19
REMARK VINA RESULT:      -6.8      2.289      4.964
REMARK  Name = LLL-AMC_min.pdb
REMARK  20 active torsions:
REMARK  status: ('A' for Active; 'I' for Inactive)
REMARK    1  A    between atoms: C1_1  and  C2_2
REMARK    2  A    between atoms: C9_11  and  N1_13
REMARK    3  A    between atoms: C11_14  and  C12_16
REMARK    4  A    between atoms: C12_16  and  C13_17
REMARK    5  A    between atoms: C12_16  and  N2_21
REMARK    6  A    between atoms: C13_17  and  C14_18
REMARK    7  A    between atoms: C14_18  and  C15_19
REMARK    8  A    between atoms: C14_18  and  C16_20
REMARK    9  A    between atoms: C17_22  and  C18_24
REMARK   10  A    between atoms: C18_24  and  C19_25
REMARK   11  A    between atoms: C18_24  and  N3_29
REMARK   12  A    between atoms: C19_25  and  C20_26
REMARK   13  A    between atoms: C20_26  and  C21_27
REMARK   14  A    between atoms: C20_26  and  C22_28
REMARK   15  A    between atoms: C23_30  and  C24_32
REMARK   16  A    between atoms: C24_32  and  C25_33
REMARK   17  A    between atoms: C24_32  and  N4_37
REMARK   18  A    between atoms: C25_33  and  C26_34
REMARK   19  A    between atoms: C26_34  and  C27_35
REMARK   20  A    between atoms: C26_34  and  C28_36
REMARK                            x       y       z     vdW  Elec       q    Type
REMARK                         _______ _______ _______ _____ _____    ______ ____
ROOT
ATOM      1  C12 UNL     1       3.193  -5.016  -9.902  0.00  0.00    +0.159 C 
ENDROOT
BRANCH   1   3
ATOM      2  N1  UNL     1       4.983  -5.006 -11.611  0.00  0.00    -0.284 N 
ATOM      3  C11 UNL     1       3.910  -4.306 -11.073  0.00  0.00    +0.238 C 
ATOM      4  O3  UNL     1       3.499  -3.218 -11.484  0.00  0.00    -0.273 OA
ATOM      5  H8  UNL     1       5.071  -5.989 -11.382  0.00  0.00    +0.155 HD
BRANCH   2  16
ATOM      6  C1  UNL     1       9.753  -1.970 -15.110  0.00  0.00    +0.045 C 
ATOM      7  C2  UNL     1       8.626  -2.887 -15.486  0.00  0.00    -0.033 A 
ATOM      8  C3  UNL     1       8.393  -3.229 -16.762  0.00  0.00    +0.096 A 
ATOM      9  C4  UNL     1       7.303  -4.125 -17.173  0.00  0.00    +0.337 A 
ATOM     10  O1  UNL     1       7.126  -4.392 -18.356  0.00  0.00    -0.245 OA
ATOM     11  O2  UNL     1       6.504  -4.647 -16.168  0.00  0.00    -0.422 OA
ATOM     12  C5  UNL     1       6.704  -4.295 -14.817  0.00  0.00    +0.141 A 
ATOM     13  C6  UNL     1       7.735  -3.428 -14.449  0.00  0.00    +0.021 A 
ATOM     14  C7  UNL     1       7.856  -3.113 -13.095  0.00  0.00    +0.013 A 
ATOM     15  C8  UNL     1       6.948  -3.625 -12.158  0.00  0.00    +0.024 A 
ATOM     16  C9  UNL     1       5.910  -4.478 -12.541  0.00  0.00    +0.037 A 
ATOM     17  C10 UNL     1       5.810  -4.842 -13.886  0.00  0.00    +0.070 A 
ENDBRANCH   2  16
ENDBRANCH   1   3
BRANCH   1  18
ATOM     18  N2  UNL     1       4.226  -5.719  -9.142  0.00  0.00    -0.302 N 
ATOM     19  C17 UNL     1       4.256  -7.096  -9.084  0.00  0.00    +0.234 C 
ATOM     20  O4  UNL     1       3.433  -7.794  -9.671  0.00  0.00    -0.274 OA
ATOM     21  H19 UNL     1       5.058  -5.199  -8.911  0.00  0.00    +0.150 HD
BRANCH  19  22
ATOM     22  C18 UNL     1       5.407  -7.687  -8.232  0.00  0.00    +0.159 C 
BRANCH  22  23
ATOM     23  N3  UNL     1       6.468  -8.215  -9.091  0.00  0.00    -0.303 N 
ATOM     24  C23 UNL     1       7.315  -7.352  -9.760  0.00  0.00    +0.230 C 
ATOM     25  O5  UNL     1       7.172  -6.131  -9.728  0.00  0.00    -0.274 OA
ATOM     26  H30 UNL     1       6.580  -9.210  -9.206  0.00  0.00    +0.149 HD
BRANCH  24  27
ATOM     27  C24 UNL     1       8.471  -8.018 -10.543  0.00  0.00    +0.138 C 
BRANCH  27  28
ATOM     28  N4  UNL     1       8.478  -9.472 -10.286  0.00  0.00    -0.320 NA
ATOM     29  H41 UNL     1       7.790  -9.906 -10.907  0.00  0.00    +0.119 HD
ATOM     30  H42 UNL     1       9.370  -9.876 -10.557  0.00  0.00    +0.119 HD
ENDBRANCH  27  28
BRANCH  27  31
ATOM     31  C25 UNL     1       8.391  -7.696 -12.043  0.00  0.00    +0.031 C 
BRANCH  31  32
ATOM     32  C26 UNL     1       9.643  -6.992 -12.614  0.00  0.00    -0.015 C 
ATOM     33  C27 UNL     1       9.506  -6.594 -14.082  0.00  0.00    +0.007 C 
ATOM     34  C28 UNL     1       9.965  -5.749 -11.778  0.00  0.00    +0.007 C 
ENDBRANCH  31  32
ENDBRANCH  27  31
ENDBRANCH  24  27
ENDBRANCH  22  23
BRANCH  22  35
ATOM     35  C19 UNL     1       5.937  -6.719  -7.157  0.00  0.00    +0.034 C 
BRANCH  35  36
ATOM     36  C20 UNL     1       6.120  -7.198  -5.696  0.00  0.00    -0.015 C 
ATOM     37  C21 UNL     1       4.903  -6.923  -4.812  0.00  0.00    +0.007 C 
ATOM     38  C22 UNL     1       7.393  -6.698  -5.020  0.00  0.00    +0.007 C 
ENDBRANCH  35  36
ENDBRANCH  22  35
ENDBRANCH  19  22
ENDBRANCH   1  18
BRANCH   1  39
ATOM     39  C13 UNL     1       2.480  -3.967  -9.029  0.00  0.00    +0.034 C 
BRANCH  39  40
ATOM     40  C14 UNL     1       1.807  -4.475  -7.732  0.00  0.00    -0.015 C 
ATOM     41  C15 UNL     1       0.975  -3.396  -7.040  0.00  0.00    +0.007 C 
ATOM     42  C16 UNL     1       0.975  -5.743  -7.927  0.00  0.00    +0.007 C 
ENDBRANCH  39  40
ENDBRANCH   1  39
TORSDOF 13
ENDMDL
