MODEL 1
REMARK VINA RESULT:      -6.8      0.000      0.000
REMARK  Name = LR_min.pdb
REMARK  12 active torsions:
REMARK  status: ('A' for Active; 'I' for Inactive)
REMARK    1  A    between atoms: N_1  and  CA_2
REMARK    2  A    between atoms: CA_2  and  C_3
REMARK    3  A    between atoms: CA_2  and  CB_5
REMARK    4  A    between atoms: CB_5  and  CG_6
REMARK    5  A    between atoms: CG_6  and  CD1_7
REMARK    6  A    between atoms: CG_6  and  CD2_8
REMARK    7  A    between atoms: N_9  and  CA_10
REMARK    8  A    between atoms: CA_10  and  C_11
REMARK    9  A    between atoms: CA_10  and  CB_14
REMARK   10  A    between atoms: CB_14  and  CG_15
REMARK   11  A    between atoms: CG_15  and  CD_16
REMARK   12  A    between atoms: CD_16  and  NE_17
REMARK                            x       y       z     vdW  Elec       q    Type
REMARK                         _______ _______ _______ _____ _____    ______ ____
ROOT
ATOM      1  C   LEU A   1       2.731  -4.285 -10.765  0.00  0.00    +0.200 C 
ATOM      2  O   LEU A   1       3.177  -3.166 -10.989  0.00  0.00    -0.278 OA
ATOM      3  N   ARG A   2       2.115  -4.664  -9.575  0.00  0.00    -0.299 N 
ATOM      4  H   ARG A   2       1.915  -5.645  -9.475  0.00  0.00    +0.150 HD
ENDROOT
BRANCH   1   5
ATOM      5  CA  LEU A   1       2.803  -5.417 -11.803  0.00  0.00    +0.013 C 
BRANCH   5   6
ATOM      6  N   LEU A   1       3.830  -6.440 -11.412  0.00  0.00    +0.386 N 
ATOM      7  H   LEU A   1       4.263  -6.111 -10.487  0.00  0.00    -0.089 HD
ATOM      8  H   LEU A   1       4.609  -6.538 -12.064  0.00  0.00    -0.089 HD
ATOM      9  H   LEU A   1       3.457  -7.359 -11.164  0.00  0.00    -0.089 HD
ENDBRANCH   5   6
BRANCH   5  10
ATOM     10  CB  LEU A   1       1.401  -6.023 -11.901  0.00  0.00    -0.004 C 
BRANCH  10  11
ATOM     11  CG  LEU A   1       0.834  -6.325 -13.297  0.00  0.00    -0.018 C 
ATOM     12  CD1 LEU A   1       1.832  -5.803 -14.341  0.00  0.00    +0.007 C 
ATOM     13  CD2 LEU A   1       0.595  -7.816 -13.531  0.00  0.00    +0.007 C 
ENDBRANCH  10  11
ENDBRANCH   5  10
ENDBRANCH   1   5
BRANCH   3  14
ATOM     14  CA  ARG A   2       2.769  -4.192  -8.342  0.00  0.00    +0.213 C 
BRANCH  14  15
ATOM     15  C   ARG A   2       4.170  -4.923  -8.198  0.00  0.00    +0.255 C 
ATOM     16  O   ARG A   2       4.163  -6.173  -8.149  0.00  0.00    -0.203 OA
ATOM     17  OXT ARG A   2       5.157  -4.093  -8.165  0.00  0.00    -0.203 OA
ENDBRANCH  14  15
BRANCH  14  18
ATOM     18  CB  ARG A   2       1.950  -4.597  -7.102  0.00  0.00    +0.042 C 
BRANCH  18  19
ATOM     19  CG  ARG A   2       0.444  -4.762  -7.363  0.00  0.00    +0.027 C 
BRANCH  19  20
ATOM     20  CD  ARG A   2      -0.361  -3.599  -6.782  0.00  0.00    +0.155 C 
BRANCH  20  21
ATOM     21  NE  ARG A   2      -1.773  -3.837  -7.081  0.00  0.00    -0.218 NA
ATOM     22  CZ  ARG A   2      -2.581  -2.884  -6.830  0.00  0.00    +0.106 C 
ATOM     23  NH1 ARG A   2      -2.216  -1.764  -6.342  0.00  0.00    -0.234 NA
ATOM     24  NH2 ARG A   2      -3.825  -3.073  -7.083  0.00  0.00    -0.234 NA
ATOM     25  H   ARG A   2      -3.019  -1.154  -6.232  0.00  0.00    +0.200 HD
ATOM     26  H   ARG A   2      -4.359  -2.247  -6.845  0.00  0.00    +0.200 HD
ENDBRANCH  20  21
ENDBRANCH  19  20
ENDBRANCH  18  19
ENDBRANCH  14  18
ENDBRANCH   3  14
TORSDOF 10
ENDMDL
MODEL 2
REMARK VINA RESULT:      -6.7      2.478      6.881
REMARK  Name = LR_min.pdb
REMARK  12 active torsions:
REMARK  status: ('A' for Active; 'I' for Inactive)
REMARK    1  A    between atoms: N_1  and  CA_2
REMARK    2  A    between atoms: CA_2  and  C_3
REMARK    3  A    between atoms: CA_2  and  CB_5
REMARK    4  A    between atoms: CB_5  and  CG_6
REMARK    5  A    between atoms: CG_6  and  CD1_7
REMARK    6  A    between atoms: CG_6  and  CD2_8
REMARK    7  A    between atoms: N_9  and  CA_10
REMARK    8  A    between atoms: CA_10  and  C_11
REMARK    9  A    between atoms: CA_10  and  CB_14
REMARK   10  A    between atoms: CB_14  and  CG_15
REMARK   11  A    between atoms: CG_15  and  CD_16
REMARK   12  A    between atoms: CD_16  and  NE_17
REMARK                            x       y       z     vdW  Elec       q    Type
REMARK                         _______ _______ _______ _____ _____    ______ ____
ROOT
ATOM      1  C   LEU A   1       1.922  -5.594  -8.029  0.00  0.00    +0.200 C 
ATOM      2  O   LEU A   1       2.777  -6.391  -7.665  0.00  0.00    -0.278 OA
ATOM      3  N   ARG A   2       1.515  -5.422  -9.349  0.00  0.00    -0.299 N 
ATOM      4  H   ARG A   2       0.901  -4.644  -9.524  0.00  0.00    +0.150 HD
ENDROOT
BRANCH   1   5
ATOM      5  CA  LEU A   1       1.186  -4.676  -7.039  0.00  0.00    +0.013 C 
BRANCH   5   6
ATOM      6  N   LEU A   1       1.425  -3.231  -7.366  0.00  0.00    +0.386 N 
ATOM      7  H   LEU A   1       0.511  -2.847  -7.776  0.00  0.00    -0.089 HD
ATOM      8  H   LEU A   1       2.139  -3.063  -8.077  0.00  0.00    -0.089 HD
ATOM      9  H   LEU A   1       1.577  -2.620  -6.561  0.00  0.00    -0.089 HD
ENDBRANCH   5   6
BRANCH   5  10
ATOM     10  CB  LEU A   1      -0.299  -5.040  -7.111  0.00  0.00    -0.004 C 
BRANCH  10  11
ATOM     11  CG  LEU A   1      -1.222  -4.561  -5.981  0.00  0.00    -0.018 C 
ATOM     12  CD1 LEU A   1      -2.319  -3.681  -6.599  0.00  0.00    +0.007 C 
ATOM     13  CD2 LEU A   1      -1.874  -5.713  -5.217  0.00  0.00    +0.007 C 
ENDBRANCH  10  11
ENDBRANCH   5  10
ENDBRANCH   1   5
BRANCH   3  14
ATOM     14  CA  ARG A   2       2.596  -5.401 -10.351  0.00  0.00    +0.213 C 
BRANCH  14  15
ATOM     15  C   ARG A   2       3.446  -4.076 -10.151  0.00  0.00    +0.255 C 
ATOM     16  O   ARG A   2       2.821  -2.992 -10.120  0.00  0.00    -0.203 OA
ATOM     17  OXT ARG A   2       4.707  -4.315 -10.032  0.00  0.00    -0.203 OA
ENDBRANCH  14  15
BRANCH  14  18
ATOM     18  CB  ARG A   2       2.015  -5.323 -11.776  0.00  0.00    +0.042 C 
BRANCH  18  19
ATOM     19  CG  ARG A   2       1.407  -6.638 -12.286  0.00  0.00    +0.027 C 
BRANCH  19  20
ATOM     20  CD  ARG A   2       1.007  -6.543 -13.759  0.00  0.00    +0.155 C 
BRANCH  20  21
ATOM     21  NE  ARG A   2       0.594  -7.876 -14.198  0.00  0.00    -0.218 NA
ATOM     22  CZ  ARG A   2       1.044  -8.273 -15.323  0.00  0.00    +0.106 C 
ATOM     23  NH1 ARG A   2       1.816  -7.574 -16.058  0.00  0.00    -0.234 NA
ATOM     24  NH2 ARG A   2       0.692  -9.439 -15.728  0.00  0.00    -0.234 NA
ATOM     25  H   ARG A   2       2.055  -8.086 -16.899  0.00  0.00    +0.200 HD
ATOM     26  H   ARG A   2       1.115  -9.638 -16.627  0.00  0.00    +0.200 HD
ENDBRANCH  20  21
ENDBRANCH  19  20
ENDBRANCH  18  19
ENDBRANCH  14  18
ENDBRANCH   3  14
TORSDOF 10
ENDMDL
MODEL 3
REMARK VINA RESULT:      -6.6      3.171      4.891
REMARK  Name = LR_min.pdb
REMARK  12 active torsions:
REMARK  status: ('A' for Active; 'I' for Inactive)
REMARK    1  A    between atoms: N_1  and  CA_2
REMARK    2  A    between atoms: CA_2  and  C_3
REMARK    3  A    between atoms: CA_2  and  CB_5
REMARK    4  A    between atoms: CB_5  and  CG_6
REMARK    5  A    between atoms: CG_6  and  CD1_7
REMARK    6  A    between atoms: CG_6  and  CD2_8
REMARK    7  A    between atoms: N_9  and  CA_10
REMARK    8  A    between atoms: CA_10  and  C_11
REMARK    9  A    between atoms: CA_10  and  CB_14
REMARK   10  A    between atoms: CB_14  and  CG_15
REMARK   11  A    between atoms: CG_15  and  CD_16
REMARK   12  A    between atoms: CD_16  and  NE_17
REMARK                            x       y       z     vdW  Elec       q    Type
REMARK                         _______ _______ _______ _____ _____    ______ ____
ROOT
ATOM      1  C   LEU A   1       3.219  -6.531  -7.467  0.00  0.00    +0.200 C 
ATOM      2  O   LEU A   1       2.472  -7.371  -7.953  0.00  0.00    -0.278 OA
ATOM      3  N   ARG A   2       2.809  -5.282  -7.008  0.00  0.00    -0.299 N 
ATOM      4  H   ARG A   2       3.543  -4.642  -6.755  0.00  0.00    +0.150 HD
ENDROOT
BRANCH   1   5
ATOM      5  CA  LEU A   1       4.728  -6.777  -7.303  0.00  0.00    +0.013 C 
BRANCH   5   6
ATOM      6  N   LEU A   1       5.524  -5.703  -7.986  0.00  0.00    +0.386 N 
ATOM      7  H   LEU A   1       4.829  -5.103  -8.542  0.00  0.00    -0.089 HD
ATOM      8  H   LEU A   1       6.205  -6.041  -8.668  0.00  0.00    -0.089 HD
ATOM      9  H   LEU A   1       5.957  -5.017  -7.364  0.00  0.00    -0.089 HD
ENDBRANCH   5   6
BRANCH   5  10
ATOM     10  CB  LEU A   1       5.012  -6.829  -5.799  0.00  0.00    -0.004 C 
BRANCH  10  11
ATOM     11  CG  LEU A   1       5.737  -8.061  -5.238  0.00  0.00    -0.018 C 
ATOM     12  CD1 LEU A   1       5.302  -9.286  -6.056  0.00  0.00    +0.007 C 
ATOM     13  CD2 LEU A   1       7.258  -7.932  -5.295  0.00  0.00    +0.007 C 
ENDBRANCH  10  11
ENDBRANCH   5  10
ENDBRANCH   1   5
BRANCH   3  14
ATOM     14  CA  ARG A   2       1.846  -4.573  -7.870  0.00  0.00    +0.213 C 
BRANCH  14  15
ATOM     15  C   ARG A   2       2.589  -3.354  -8.565  0.00  0.00    +0.255 C 
ATOM     16  O   ARG A   2       2.347  -2.208  -8.124  0.00  0.00    -0.203 OA
ATOM     17  OXT ARG A   2       3.376  -3.734  -9.512  0.00  0.00    -0.203 OA
ENDBRANCH  14  15
BRANCH  14  18
ATOM     18  CB  ARG A   2       0.714  -3.956  -7.028  0.00  0.00    +0.042 C 
BRANCH  18  19
ATOM     19  CG  ARG A   2      -0.562  -4.809  -6.960  0.00  0.00    +0.027 C 
BRANCH  19  20
ATOM     20  CD  ARG A   2      -1.568  -4.245  -5.954  0.00  0.00    +0.155 C 
BRANCH  20  21
ATOM     21  NE  ARG A   2      -2.764  -3.841  -6.694  0.00  0.00    -0.218 NA
ATOM     22  CZ  ARG A   2      -2.975  -2.589  -6.802  0.00  0.00    +0.106 C 
ATOM     23  NH1 ARG A   2      -2.207  -1.701  -6.304  0.00  0.00    -0.234 NA
ATOM     24  NH2 ARG A   2      -4.020  -2.213  -7.445  0.00  0.00    -0.234 NA
ATOM     25  H   ARG A   2      -2.561  -0.775  -6.517  0.00  0.00    +0.200 HD
ATOM     26  H   ARG A   2      -4.074  -1.202  -7.463  0.00  0.00    +0.200 HD
ENDBRANCH  20  21
ENDBRANCH  19  20
ENDBRANCH  18  19
ENDBRANCH  14  18
ENDBRANCH   3  14
TORSDOF 10
ENDMDL
MODEL 4
REMARK VINA RESULT:      -6.5      1.232      1.790
REMARK  Name = LR_min.pdb
REMARK  12 active torsions:
REMARK  status: ('A' for Active; 'I' for Inactive)
REMARK    1  A    between atoms: N_1  and  CA_2
REMARK    2  A    between atoms: CA_2  and  C_3
REMARK    3  A    between atoms: CA_2  and  CB_5
REMARK    4  A    between atoms: CB_5  and  CG_6
REMARK    5  A    between atoms: CG_6  and  CD1_7
REMARK    6  A    between atoms: CG_6  and  CD2_8
REMARK    7  A    between atoms: N_9  and  CA_10
REMARK    8  A    between atoms: CA_10  and  C_11
REMARK    9  A    between atoms: CA_10  and  CB_14
REMARK   10  A    between atoms: CB_14  and  CG_15
REMARK   11  A    between atoms: CG_15  and  CD_16
REMARK   12  A    between atoms: CD_16  and  NE_17
REMARK                            x       y       z     vdW  Elec       q    Type
REMARK                         _______ _______ _______ _____ _____    ______ ____
ROOT
ATOM      1  C   LEU A   1       2.549  -4.370 -10.496  0.00  0.00    +0.200 C 
ATOM      2  O   LEU A   1       3.017  -3.272 -10.772  0.00  0.00    -0.278 OA
ATOM      3  N   ARG A   2       1.809  -4.645  -9.348  0.00  0.00    -0.299 N 
ATOM      4  H   ARG A   2       1.599  -5.615  -9.181  0.00  0.00    +0.150 HD
ENDROOT
BRANCH   1   5
ATOM      5  CA  LEU A   1       2.730  -5.590 -11.413  0.00  0.00    +0.013 C 
BRANCH   5   6
ATOM      6  N   LEU A   1       1.491  -6.439 -11.429  0.00  0.00    +0.386 N 
ATOM      7  H   LEU A   1       1.660  -7.228 -12.135  0.00  0.00    -0.089 HD
ATOM      8  H   LEU A   1       0.646  -5.960 -11.745  0.00  0.00    -0.089 HD
ATOM      9  H   LEU A   1       1.304  -6.954 -10.566  0.00  0.00    -0.089 HD
ENDBRANCH   5   6
BRANCH   5  10
ATOM     10  CB  LEU A   1       3.073  -5.056 -12.806  0.00  0.00    -0.004 C 
BRANCH  10  11
ATOM     11  CG  LEU A   1       3.303  -6.068 -13.938  0.00  0.00    -0.018 C 
ATOM     12  CD1 LEU A   1       2.096  -6.009 -14.886  0.00  0.00    +0.007 C 
ATOM     13  CD2 LEU A   1       4.579  -5.792 -14.731  0.00  0.00    +0.007 C 
ENDBRANCH  10  11
ENDBRANCH   5  10
ENDBRANCH   1   5
BRANCH   3  14
ATOM     14  CA  ARG A   2       2.329  -4.058  -8.100  0.00  0.00    +0.213 C 
BRANCH  14  15
ATOM     15  C   ARG A   2       3.669  -4.810  -7.705  0.00  0.00    +0.255 C 
ATOM     16  O   ARG A   2       4.748  -4.297  -8.081  0.00  0.00    -0.203 OA
ATOM     17  OXT ARG A   2       3.449  -5.875  -7.014  0.00  0.00    -0.203 OA
ENDBRANCH  14  15
BRANCH  14  18
ATOM     18  CB  ARG A   2       1.348  -4.297  -6.937  0.00  0.00    +0.042 C 
BRANCH  18  19
ATOM     19  CG  ARG A   2       0.180  -3.301  -6.877  0.00  0.00    +0.027 C 
BRANCH  19  20
ATOM     20  CD  ARG A   2      -1.173  -4.010  -6.943  0.00  0.00    +0.155 C 
BRANCH  20  21
ATOM     21  NE  ARG A   2      -2.171  -3.131  -6.334  0.00  0.00    -0.218 NA
ATOM     22  CZ  ARG A   2      -3.037  -2.618  -7.116  0.00  0.00    +0.106 C 
ATOM     23  NH1 ARG A   2      -3.065  -2.836  -8.372  0.00  0.00    -0.234 NA
ATOM     24  NH2 ARG A   2      -3.921  -1.843  -6.602  0.00  0.00    -0.234 NA
ATOM     25  H   ARG A   2      -3.840  -2.335  -8.795  0.00  0.00    +0.200 HD
ATOM     26  H   ARG A   2      -4.548  -1.505  -7.321  0.00  0.00    +0.200 HD
ENDBRANCH  20  21
ENDBRANCH  19  20
ENDBRANCH  18  19
ENDBRANCH  14  18
ENDBRANCH   3  14
TORSDOF 10
ENDMDL
MODEL 5
REMARK VINA RESULT:      -6.4      2.308      6.809
REMARK  Name = LR_min.pdb
REMARK  12 active torsions:
REMARK  status: ('A' for Active; 'I' for Inactive)
REMARK    1  A    between atoms: N_1  and  CA_2
REMARK    2  A    between atoms: CA_2  and  C_3
REMARK    3  A    between atoms: CA_2  and  CB_5
REMARK    4  A    between atoms: CB_5  and  CG_6
REMARK    5  A    between atoms: CG_6  and  CD1_7
REMARK    6  A    between atoms: CG_6  and  CD2_8
REMARK    7  A    between atoms: N_9  and  CA_10
REMARK    8  A    between atoms: CA_10  and  C_11
REMARK    9  A    between atoms: CA_10  and  CB_14
REMARK   10  A    between atoms: CB_14  and  CG_15
REMARK   11  A    between atoms: CG_15  and  CD_16
REMARK   12  A    between atoms: CD_16  and  NE_17
REMARK                            x       y       z     vdW  Elec       q    Type
REMARK                         _______ _______ _______ _____ _____    ______ ____
ROOT
ATOM      1  C   LEU A   1       1.880  -5.446  -7.808  0.00  0.00    +0.200 C 
ATOM      2  O   LEU A   1       2.825  -6.136  -7.447  0.00  0.00    -0.278 OA
ATOM      3  N   ARG A   2       1.439  -5.338  -9.124  0.00  0.00    -0.299 N 
ATOM      4  H   ARG A   2       0.738  -4.637  -9.298  0.00  0.00    +0.150 HD
ENDROOT
BRANCH   1   5
ATOM      5  CA  LEU A   1       1.056  -4.607  -6.817  0.00  0.00    +0.013 C 
BRANCH   5   6
ATOM      6  N   LEU A   1       1.297  -3.140  -7.025  0.00  0.00    +0.386 N 
ATOM      7  H   LEU A   1       0.878  -2.630  -6.179  0.00  0.00    -0.089 HD
ATOM      8  H   LEU A   1       0.838  -2.741  -7.845  0.00  0.00    -0.089 HD
ATOM      9  H   LEU A   1       2.277  -2.850  -6.992  0.00  0.00    -0.089 HD
ENDBRANCH   5   6
BRANCH   5  10
ATOM     10  CB  LEU A   1      -0.414  -4.980  -7.029  0.00  0.00    -0.004 C 
BRANCH  10  11
ATOM     11  CG  LEU A   1      -1.431  -4.571  -5.953  0.00  0.00    -0.018 C 
ATOM     12  CD1 LEU A   1      -2.593  -3.844  -6.645  0.00  0.00    +0.007 C 
ATOM     13  CD2 LEU A   1      -1.979  -5.763  -5.170  0.00  0.00    +0.007 C 
ENDBRANCH  10  11
ENDBRANCH   5  10
ENDBRANCH   1   5
BRANCH   3  14
ATOM     14  CA  ARG A   2       2.498  -5.205 -10.140  0.00  0.00    +0.213 C 
BRANCH  14  15
ATOM     15  C   ARG A   2       2.779  -3.662 -10.381  0.00  0.00    +0.255 C 
ATOM     16  O   ARG A   2       2.862  -2.929  -9.370  0.00  0.00    -0.203 OA
ATOM     17  OXT ARG A   2       2.901  -3.374 -11.632  0.00  0.00    -0.203 OA
ENDBRANCH  14  15
BRANCH  14  18
ATOM     18  CB  ARG A   2       2.026  -5.767 -11.494  0.00  0.00    +0.042 C 
BRANCH  18  19
ATOM     19  CG  ARG A   2       3.045  -6.680 -12.192  0.00  0.00    +0.027 C 
BRANCH  19  20
ATOM     20  CD  ARG A   2       2.408  -7.991 -12.656  0.00  0.00    +0.155 C 
BRANCH  20  21
ATOM     21  NE  ARG A   2       2.395  -7.991 -14.119  0.00  0.00    -0.218 NA
ATOM     22  CZ  ARG A   2       1.254  -7.910 -14.681  0.00  0.00    +0.106 C 
ATOM     23  NH1 ARG A   2       0.157  -7.832 -14.036  0.00  0.00    -0.234 NA
ATOM     24  NH2 ARG A   2       1.219  -7.910 -15.964  0.00  0.00    -0.234 NA
ATOM     25  H   ARG A   2      -0.623  -7.768 -14.682  0.00  0.00    +0.200 HD
ATOM     26  H   ARG A   2       0.262  -7.838 -16.287  0.00  0.00    +0.200 HD
ENDBRANCH  20  21
ENDBRANCH  19  20
ENDBRANCH  18  19
ENDBRANCH  14  18
ENDBRANCH   3  14
TORSDOF 10
ENDMDL
MODEL 6
REMARK VINA RESULT:      -6.3      1.395      1.662
REMARK  Name = LR_min.pdb
REMARK  12 active torsions:
REMARK  status: ('A' for Active; 'I' for Inactive)
REMARK    1  A    between atoms: N_1  and  CA_2
REMARK    2  A    between atoms: CA_2  and  C_3
REMARK    3  A    between atoms: CA_2  and  CB_5
REMARK    4  A    between atoms: CB_5  and  CG_6
REMARK    5  A    between atoms: CG_6  and  CD1_7
REMARK    6  A    between atoms: CG_6  and  CD2_8
REMARK    7  A    between atoms: N_9  and  CA_10
REMARK    8  A    between atoms: CA_10  and  C_11
REMARK    9  A    between atoms: CA_10  and  CB_14
REMARK   10  A    between atoms: CB_14  and  CG_15
REMARK   11  A    between atoms: CG_15  and  CD_16
REMARK   12  A    between atoms: CD_16  and  NE_17
REMARK                            x       y       z     vdW  Elec       q    Type
REMARK                         _______ _______ _______ _____ _____    ______ ____
ROOT
ATOM      1  C   LEU A   1       2.507  -3.802  -9.983  0.00  0.00    +0.200 C 
ATOM      2  O   LEU A   1       2.729  -2.797  -9.319  0.00  0.00    -0.278 OA
ATOM      3  N   ARG A   2       1.706  -4.861  -9.564  0.00  0.00    -0.299 N 
ATOM      4  H   ARG A   2       1.715  -5.679 -10.151  0.00  0.00    +0.150 HD
ENDROOT
BRANCH   1   5
ATOM      5  CA  LEU A   1       3.101  -4.002 -11.387  0.00  0.00    +0.013 C 
BRANCH   5   6
ATOM      6  N   LEU A   1       4.595  -3.853 -11.364  0.00  0.00    +0.386 N 
ATOM      7  H   LEU A   1       4.805  -2.801 -11.402  0.00  0.00    -0.089 HD
ATOM      8  H   LEU A   1       5.080  -4.262 -12.163  0.00  0.00    -0.089 HD
ATOM      9  H   LEU A   1       5.048  -4.135 -10.492  0.00  0.00    -0.089 HD
ENDBRANCH   5   6
BRANCH   5  10
ATOM     10  CB  LEU A   1       2.674  -5.395 -11.858  0.00  0.00    -0.004 C 
BRANCH  10  11
ATOM     11  CG  LEU A   1       2.034  -5.527 -13.249  0.00  0.00    -0.018 C 
ATOM     12  CD1 LEU A   1       3.076  -6.137 -14.199  0.00  0.00    +0.007 C 
ATOM     13  CD2 LEU A   1       0.783  -6.404 -13.245  0.00  0.00    +0.007 C 
ENDBRANCH  10  11
ENDBRANCH   5  10
ENDBRANCH   1   5
BRANCH   3  14
ATOM     14  CA  ARG A   2       1.892  -5.286  -8.166  0.00  0.00    +0.213 C 
BRANCH  14  15
ATOM     15  C   ARG A   2       2.523  -6.743  -8.157  0.00  0.00    +0.255 C 
ATOM     16  O   ARG A   2       1.973  -7.611  -8.872  0.00  0.00    -0.203 OA
ATOM     17  OXT ARG A   2       3.560  -6.825  -7.396  0.00  0.00    -0.203 OA
ENDBRANCH  14  15
BRANCH  14  18
ATOM     18  CB  ARG A   2       0.535  -5.407  -7.448  0.00  0.00    +0.042 C 
BRANCH  18  19
ATOM     19  CG  ARG A   2      -0.168  -4.065  -7.191  0.00  0.00    +0.027 C 
BRANCH  19  20
ATOM     20  CD  ARG A   2      -1.423  -4.237  -6.334  0.00  0.00    +0.155 C 
BRANCH  20  21
ATOM     21  NE  ARG A   2      -2.565  -3.746  -7.105  0.00  0.00    -0.218 NA
ATOM     22  CZ  ARG A   2      -2.879  -2.521  -6.946  0.00  0.00    +0.106 C 
ATOM     23  NH1 ARG A   2      -2.255  -1.732  -6.163  0.00  0.00    -0.234 NA
ATOM     24  NH2 ARG A   2      -3.879  -2.071  -7.612  0.00  0.00    -0.234 NA
ATOM     25  H   ARG A   2      -2.669  -0.806  -6.199  0.00  0.00    +0.200 HD
ATOM     26  H   ARG A   2      -4.025  -1.091  -7.402  0.00  0.00    +0.200 HD
ENDBRANCH  20  21
ENDBRANCH  19  20
ENDBRANCH  18  19
ENDBRANCH  14  18
ENDBRANCH   3  14
TORSDOF 10
ENDMDL
MODEL 7
REMARK VINA RESULT:      -6.3      2.722      3.791
REMARK  Name = LR_min.pdb
REMARK  12 active torsions:
REMARK  status: ('A' for Active; 'I' for Inactive)
REMARK    1  A    between atoms: N_1  and  CA_2
REMARK    2  A    between atoms: CA_2  and  C_3
REMARK    3  A    between atoms: CA_2  and  CB_5
REMARK    4  A    between atoms: CB_5  and  CG_6
REMARK    5  A    between atoms: CG_6  and  CD1_7
REMARK    6  A    between atoms: CG_6  and  CD2_8
REMARK    7  A    between atoms: N_9  and  CA_10
REMARK    8  A    between atoms: CA_10  and  C_11
REMARK    9  A    between atoms: CA_10  and  CB_14
REMARK   10  A    between atoms: CB_14  and  CG_15
REMARK   11  A    between atoms: CG_15  and  CD_16
REMARK   12  A    between atoms: CD_16  and  NE_17
REMARK                            x       y       z     vdW  Elec       q    Type
REMARK                         _______ _______ _______ _____ _____    ______ ____
ROOT
ATOM      1  C   LEU A   1       3.460  -6.180  -7.670  0.00  0.00    +0.200 C 
ATOM      2  O   LEU A   1       2.840  -7.083  -8.217  0.00  0.00    -0.278 OA
ATOM      3  N   ARG A   2       2.875  -5.048  -7.109  0.00  0.00    -0.299 N 
ATOM      4  H   ARG A   2       3.509  -4.325  -6.811  0.00  0.00    +0.150 HD
ENDROOT
BRANCH   1   5
ATOM      5  CA  LEU A   1       4.992  -6.204  -7.538  0.00  0.00    +0.013 C 
BRANCH   5   6
ATOM      6  N   LEU A   1       5.411  -6.870  -6.260  0.00  0.00    +0.386 N 
ATOM      7  H   LEU A   1       6.448  -6.639  -6.111  0.00  0.00    -0.089 HD
ATOM      8  H   LEU A   1       5.353  -7.890  -6.268  0.00  0.00    -0.089 HD
ATOM      9  H   LEU A   1       4.979  -6.498  -5.412  0.00  0.00    -0.089 HD
ENDBRANCH   5   6
BRANCH   5  10
ATOM     10  CB  LEU A   1       5.535  -6.935  -8.769  0.00  0.00    -0.004 C 
BRANCH  10  11
ATOM     11  CG  LEU A   1       6.064  -6.094  -9.941  0.00  0.00    -0.018 C 
ATOM     12  CD1 LEU A   1       5.040  -6.168 -11.083  0.00  0.00    +0.007 C 
ATOM     13  CD2 LEU A   1       6.294  -4.631  -9.565  0.00  0.00    +0.007 C 
ENDBRANCH  10  11
ENDBRANCH   5  10
ENDBRANCH   1   5
BRANCH   3  14
ATOM     14  CA  ARG A   2       1.799  -4.429  -7.903  0.00  0.00    +0.213 C 
BRANCH  14  15
ATOM     15  C   ARG A   2       2.384  -3.154  -8.645  0.00  0.00    +0.255 C 
ATOM     16  O   ARG A   2       2.396  -2.075  -8.010  0.00  0.00    -0.203 OA
ATOM     17  OXT ARG A   2       2.793  -3.423  -9.837  0.00  0.00    -0.203 OA
ENDBRANCH  14  15
BRANCH  14  18
ATOM     18  CB  ARG A   2       0.676  -3.908  -6.986  0.00  0.00    +0.042 C 
BRANCH  18  19
ATOM     19  CG  ARG A   2      -0.606  -4.754  -7.011  0.00  0.00    +0.027 C 
BRANCH  19  20
ATOM     20  CD  ARG A   2      -1.651  -4.229  -6.025  0.00  0.00    +0.155 C 
BRANCH  20  21
ATOM     21  NE  ARG A   2      -2.799  -3.755  -6.797  0.00  0.00    -0.218 NA
ATOM     22  CZ  ARG A   2      -2.979  -2.494  -6.842  0.00  0.00    +0.106 C 
ATOM     23  NH1 ARG A   2      -2.219  -1.655  -6.255  0.00  0.00    -0.234 NA
ATOM     24  NH2 ARG A   2      -3.982  -2.057  -7.512  0.00  0.00    -0.234 NA
ATOM     25  H   ARG A   2      -2.543  -0.710  -6.431  0.00  0.00    +0.200 HD
ATOM     26  H   ARG A   2      -4.014  -1.046  -7.474  0.00  0.00    +0.200 HD
ENDBRANCH  20  21
ENDBRANCH  19  20
ENDBRANCH  18  19
ENDBRANCH  14  18
ENDBRANCH   3  14
TORSDOF 10
ENDMDL
MODEL 8
REMARK VINA RESULT:      -6.3      2.855      6.426
REMARK  Name = LR_min.pdb
REMARK  12 active torsions:
REMARK  status: ('A' for Active; 'I' for Inactive)
REMARK    1  A    between atoms: N_1  and  CA_2
REMARK    2  A    between atoms: CA_2  and  C_3
REMARK    3  A    between atoms: CA_2  and  CB_5
REMARK    4  A    between atoms: CB_5  and  CG_6
REMARK    5  A    between atoms: CG_6  and  CD1_7
REMARK    6  A    between atoms: CG_6  and  CD2_8
REMARK    7  A    between atoms: N_9  and  CA_10
REMARK    8  A    between atoms: CA_10  and  C_11
REMARK    9  A    between atoms: CA_10  and  CB_14
REMARK   10  A    between atoms: CB_14  and  CG_15
REMARK   11  A    between atoms: CG_15  and  CD_16
REMARK   12  A    between atoms: CD_16  and  NE_17
REMARK                            x       y       z     vdW  Elec       q    Type
REMARK                         _______ _______ _______ _____ _____    ______ ____
ROOT
ATOM      1  C   LEU A   1       2.267  -3.802  -8.646  0.00  0.00    +0.200 C 
ATOM      2  O   LEU A   1       2.434  -2.589  -8.661  0.00  0.00    -0.278 OA
ATOM      3  N   ARG A   2       2.700  -4.670  -9.645  0.00  0.00    -0.299 N 
ATOM      4  H   ARG A   2       2.381  -5.622  -9.570  0.00  0.00    +0.150 HD
ENDROOT
BRANCH   1   5
ATOM      5  CA  LEU A   1       1.545  -4.514  -7.489  0.00  0.00    +0.013 C 
BRANCH   5   6
ATOM      6  N   LEU A   1       2.507  -4.864  -6.391  0.00  0.00    +0.386 N 
ATOM      7  H   LEU A   1       3.221  -4.066  -6.333  0.00  0.00    -0.089 HD
ATOM      8  H   LEU A   1       3.052  -5.712  -6.551  0.00  0.00    -0.089 HD
ATOM      9  H   LEU A   1       2.110  -4.871  -5.449  0.00  0.00    -0.089 HD
ENDBRANCH   5   6
BRANCH   5  10
ATOM     10  CB  LEU A   1       0.442  -3.570  -7.002  0.00  0.00    -0.004 C 
BRANCH  10  11
ATOM     11  CG  LEU A   1      -1.010  -4.070  -7.037  0.00  0.00    -0.018 C 
ATOM     12  CD1 LEU A   1      -1.240  -4.958  -5.805  0.00  0.00    +0.007 C 
ATOM     13  CD2 LEU A   1      -2.029  -2.932  -7.033  0.00  0.00    +0.007 C 
ENDBRANCH  10  11
ENDBRANCH   5  10
ENDBRANCH   1   5
BRANCH   3  14
ATOM     14  CA  ARG A   2       2.479  -4.210 -11.027  0.00  0.00    +0.213 C 
BRANCH  14  15
ATOM     15  C   ARG A   2       1.976  -5.438 -11.897  0.00  0.00    +0.255 C 
ATOM     16  O   ARG A   2       1.817  -5.246 -13.124  0.00  0.00    -0.203 OA
ATOM     17  OXT ARG A   2       1.808  -6.504 -11.192  0.00  0.00    -0.203 OA
ENDBRANCH  14  15
BRANCH  14  18
ATOM     18  CB  ARG A   2       3.803  -3.751 -11.666  0.00  0.00    +0.042 C 
BRANCH  18  19
ATOM     19  CG  ARG A   2       4.885  -4.841 -11.735  0.00  0.00    +0.027 C 
BRANCH  19  20
ATOM     20  CD  ARG A   2       5.963  -4.638 -10.670  0.00  0.00    +0.155 C 
BRANCH  20  21
ATOM     21  NE  ARG A   2       5.541  -5.348  -9.463  0.00  0.00    -0.218 NA
ATOM     22  CZ  ARG A   2       5.991  -4.910  -8.354  0.00  0.00    +0.106 C 
ATOM     23  NH1 ARG A   2       6.773  -3.907  -8.259  0.00  0.00    -0.234 NA
ATOM     24  NH2 ARG A   2       5.635  -5.519  -7.282  0.00  0.00    -0.234 NA
ATOM     25  H   ARG A   2       6.998  -3.730  -7.286  0.00  0.00    +0.200 HD
ATOM     26  H   ARG A   2       6.053  -5.077  -6.473  0.00  0.00    +0.200 HD
ENDBRANCH  20  21
ENDBRANCH  19  20
ENDBRANCH  18  19
ENDBRANCH  14  18
ENDBRANCH   3  14
TORSDOF 10
ENDMDL
MODEL 9
REMARK VINA RESULT:      -6.3      2.571      6.617
REMARK  Name = LR_min.pdb
REMARK  12 active torsions:
REMARK  status: ('A' for Active; 'I' for Inactive)
REMARK    1  A    between atoms: N_1  and  CA_2
REMARK    2  A    between atoms: CA_2  and  C_3
REMARK    3  A    between atoms: CA_2  and  CB_5
REMARK    4  A    between atoms: CB_5  and  CG_6
REMARK    5  A    between atoms: CG_6  and  CD1_7
REMARK    6  A    between atoms: CG_6  and  CD2_8
REMARK    7  A    between atoms: N_9  and  CA_10
REMARK    8  A    between atoms: CA_10  and  C_11
REMARK    9  A    between atoms: CA_10  and  CB_14
REMARK   10  A    between atoms: CB_14  and  CG_15
REMARK   11  A    between atoms: CG_15  and  CD_16
REMARK   12  A    between atoms: CD_16  and  NE_17
REMARK                            x       y       z     vdW  Elec       q    Type
REMARK                         _______ _______ _______ _____ _____    ______ ____
ROOT
ATOM      1  C   LEU A   1       2.134  -5.201  -7.622  0.00  0.00    +0.200 C 
ATOM      2  O   LEU A   1       3.079  -5.776  -7.095  0.00  0.00    -0.278 OA
ATOM      3  N   ARG A   2       1.816  -5.285  -8.975  0.00  0.00    -0.299 N 
ATOM      4  H   ARG A   2       1.096  -4.660  -9.297  0.00  0.00    +0.150 HD
ENDROOT
BRANCH   1   5
ATOM      5  CA  LEU A   1       1.172  -4.307  -6.821  0.00  0.00    +0.013 C 
BRANCH   5   6
ATOM      6  N   LEU A   1       1.291  -2.873  -7.249  0.00  0.00    +0.386 N 
ATOM      7  H   LEU A   1       2.201  -2.494  -6.827  0.00  0.00    -0.089 HD
ATOM      8  H   LEU A   1       0.550  -2.260  -6.907  0.00  0.00    -0.089 HD
ATOM      9  H   LEU A   1       1.437  -2.728  -8.250  0.00  0.00    -0.089 HD
ENDBRANCH   5   6
BRANCH   5  10
ATOM     10  CB  LEU A   1      -0.239  -4.856  -7.046  0.00  0.00    -0.004 C 
BRANCH  10  11
ATOM     11  CG  LEU A   1      -1.317  -4.544  -5.997  0.00  0.00    -0.018 C 
ATOM     12  CD1 LEU A   1      -2.476  -3.824  -6.702  0.00  0.00    +0.007 C 
ATOM     13  CD2 LEU A   1      -1.850  -5.796  -5.303  0.00  0.00    +0.007 C 
ENDBRANCH  10  11
ENDBRANCH   5  10
ENDBRANCH   1   5
BRANCH   3  14
ATOM     14  CA  ARG A   2       2.958  -5.203  -9.903  0.00  0.00    +0.213 C 
BRANCH  14  15
ATOM     15  C   ARG A   2       2.494  -4.433 -11.211  0.00  0.00    +0.255 C 
ATOM     16  O   ARG A   2       1.919  -5.103 -12.098  0.00  0.00    -0.203 OA
ATOM     17  OXT ARG A   2       2.774  -3.175 -11.166  0.00  0.00    -0.203 OA
ENDBRANCH  14  15
BRANCH  14  18
ATOM     18  CB  ARG A   2       3.384  -6.608 -10.366  0.00  0.00    +0.042 C 
BRANCH  18  19
ATOM     19  CG  ARG A   2       4.902  -6.793 -10.518  0.00  0.00    +0.027 C 
BRANCH  19  20
ATOM     20  CD  ARG A   2       5.632  -6.595  -9.189  0.00  0.00    +0.155 C 
BRANCH  20  21
ATOM     21  NE  ARG A   2       6.704  -5.623  -9.406  0.00  0.00    -0.218 NA
ATOM     22  CZ  ARG A   2       6.609  -4.516  -8.781  0.00  0.00    +0.106 C 
ATOM     23  NH1 ARG A   2       5.644  -4.232  -7.998  0.00  0.00    -0.234 NA
ATOM     24  NH2 ARG A   2       7.538  -3.649  -8.959  0.00  0.00    -0.234 NA
ATOM     25  H   ARG A   2       5.776  -3.307  -7.604  0.00  0.00    +0.200 HD
ATOM     26  H   ARG A   2       7.351  -2.820  -8.409  0.00  0.00    +0.200 HD
ENDBRANCH  20  21
ENDBRANCH  19  20
ENDBRANCH  18  19
ENDBRANCH  14  18
ENDBRANCH   3  14
TORSDOF 10
ENDMDL
MODEL 10
REMARK VINA RESULT:      -6.2      2.271      6.927
REMARK  Name = LR_min.pdb
REMARK  12 active torsions:
REMARK  status: ('A' for Active; 'I' for Inactive)
REMARK    1  A    between atoms: N_1  and  CA_2
REMARK    2  A    between atoms: CA_2  and  C_3
REMARK    3  A    between atoms: CA_2  and  CB_5
REMARK    4  A    between atoms: CB_5  and  CG_6
REMARK    5  A    between atoms: CG_6  and  CD1_7
REMARK    6  A    between atoms: CG_6  and  CD2_8
REMARK    7  A    between atoms: N_9  and  CA_10
REMARK    8  A    between atoms: CA_10  and  C_11
REMARK    9  A    between atoms: CA_10  and  CB_14
REMARK   10  A    between atoms: CB_14  and  CG_15
REMARK   11  A    between atoms: CG_15  and  CD_16
REMARK   12  A    between atoms: CD_16  and  NE_17
REMARK                            x       y       z     vdW  Elec       q    Type
REMARK                         _______ _______ _______ _____ _____    ______ ____
ROOT
ATOM      1  C   LEU A   1       1.949  -5.577  -7.962  0.00  0.00    +0.200 C 
ATOM      2  O   LEU A   1       2.772  -6.380  -7.542  0.00  0.00    -0.278 OA
ATOM      3  N   ARG A   2       1.607  -5.427  -9.304  0.00  0.00    -0.299 N 
ATOM      4  H   ARG A   2       1.017  -4.643  -9.524  0.00  0.00    +0.150 HD
ENDROOT
BRANCH   1   5
ATOM      5  CA  LEU A   1       1.184  -4.625  -7.027  0.00  0.00    +0.013 C 
BRANCH   5   6
ATOM      6  N   LEU A   1       1.451  -3.192  -7.384  0.00  0.00    +0.386 N 
ATOM      7  H   LEU A   1       1.877  -3.188  -8.369  0.00  0.00    -0.089 HD
ATOM      8  H   LEU A   1       2.130  -2.719  -6.786  0.00  0.00    -0.089 HD
ATOM      9  H   LEU A   1       0.620  -2.609  -7.504  0.00  0.00    -0.089 HD
ENDBRANCH   5   6
BRANCH   5  10
ATOM     10  CB  LEU A   1      -0.301  -4.977  -7.150  0.00  0.00    -0.004 C 
BRANCH  10  11
ATOM     11  CG  LEU A   1      -1.242  -4.569  -6.006  0.00  0.00    -0.018 C 
ATOM     12  CD1 LEU A   1      -2.375  -3.717  -6.599  0.00  0.00    +0.007 C 
ATOM     13  CD2 LEU A   1      -1.845  -5.768  -5.277  0.00  0.00    +0.007 C 
ENDBRANCH  10  11
ENDBRANCH   5  10
ENDBRANCH   1   5
BRANCH   3  14
ATOM     14  CA  ARG A   2       2.734  -5.446 -10.253  0.00  0.00    +0.213 C 
BRANCH  14  15
ATOM     15  C   ARG A   2       3.557  -4.099 -10.091  0.00  0.00    +0.255 C 
ATOM     16  O   ARG A   2       4.788  -4.199  -9.885  0.00  0.00    -0.203 OA
ATOM     17  OXT ARG A   2       2.815  -3.052 -10.213  0.00  0.00    -0.203 OA
ENDBRANCH  14  15
BRANCH  14  18
ATOM     18  CB  ARG A   2       2.222  -5.459 -11.706  0.00  0.00    +0.042 C 
BRANCH  18  19
ATOM     19  CG  ARG A   2       3.135  -6.200 -12.694  0.00  0.00    +0.027 C 
BRANCH  19  20
ATOM     20  CD  ARG A   2       3.881  -5.230 -13.612  0.00  0.00    +0.155 C 
BRANCH  20  21
ATOM     21  NE  ARG A   2       5.314  -5.390 -13.365  0.00  0.00    -0.218 NA
ATOM     22  CZ  ARG A   2       5.957  -4.343 -13.025  0.00  0.00    +0.106 C 
ATOM     23  NH1 ARG A   2       5.415  -3.196 -12.897  0.00  0.00    -0.234 NA
ATOM     24  NH2 ARG A   2       7.215  -4.461 -12.805  0.00  0.00    -0.234 NA
ATOM     25  H   ARG A   2       6.108  -2.513 -12.613  0.00  0.00    +0.200 HD
ATOM     26  H   ARG A   2       7.609  -3.566 -12.542  0.00  0.00    +0.200 HD
ENDBRANCH  20  21
ENDBRANCH  19  20
ENDBRANCH  18  19
ENDBRANCH  14  18
ENDBRANCH   3  14
TORSDOF 10
ENDMDL
MODEL 11
REMARK VINA RESULT:      -6.2      2.915      6.067
REMARK  Name = LR_min.pdb
REMARK  12 active torsions:
REMARK  status: ('A' for Active; 'I' for Inactive)
REMARK    1  A    between atoms: N_1  and  CA_2
REMARK    2  A    between atoms: CA_2  and  C_3
REMARK    3  A    between atoms: CA_2  and  CB_5
REMARK    4  A    between atoms: CB_5  and  CG_6
REMARK    5  A    between atoms: CG_6  and  CD1_7
REMARK    6  A    between atoms: CG_6  and  CD2_8
REMARK    7  A    between atoms: N_9  and  CA_10
REMARK    8  A    between atoms: CA_10  and  C_11
REMARK    9  A    between atoms: CA_10  and  CB_14
REMARK   10  A    between atoms: CB_14  and  CG_15
REMARK   11  A    between atoms: CG_15  and  CD_16
REMARK   12  A    between atoms: CD_16  and  NE_17
REMARK                            x       y       z     vdW  Elec       q    Type
REMARK                         _______ _______ _______ _____ _____    ______ ____
ROOT
ATOM      1  C   LEU A   1       1.998  -4.996  -7.778  0.00  0.00    +0.200 C 
ATOM      2  O   LEU A   1       1.549  -5.597  -8.747  0.00  0.00    -0.278 OA
ATOM      3  N   ARG A   2       3.354  -4.776  -7.547  0.00  0.00    -0.299 N 
ATOM      4  H   ARG A   2       3.590  -4.386  -6.650  0.00  0.00    +0.150 HD
ENDROOT
BRANCH   1   5
ATOM      5  CA  LEU A   1       1.089  -4.403  -6.689  0.00  0.00    +0.013 C 
BRANCH   5   6
ATOM      6  N   LEU A   1       1.104  -2.903  -6.735  0.00  0.00    +0.386 N 
ATOM      7  H   LEU A   1       0.632  -2.557  -5.836  0.00  0.00    -0.089 HD
ATOM      8  H   LEU A   1       0.573  -2.491  -7.503  0.00  0.00    -0.089 HD
ATOM      9  H   LEU A   1       2.030  -2.474  -6.675  0.00  0.00    -0.089 HD
ENDBRANCH   5   6
BRANCH   5  10
ATOM     10  CB  LEU A   1      -0.315  -4.968  -6.924  0.00  0.00    -0.004 C 
BRANCH  10  11
ATOM     11  CG  LEU A   1      -1.413  -4.636  -5.902  0.00  0.00    -0.018 C 
ATOM     12  CD1 LEU A   1      -2.558  -3.928  -6.642  0.00  0.00    +0.007 C 
ATOM     13  CD2 LEU A   1      -1.961  -5.875  -5.196  0.00  0.00    +0.007 C 
ENDBRANCH  10  11
ENDBRANCH   5  10
ENDBRANCH   1   5
BRANCH   3  14
ATOM     14  CA  ARG A   2       4.238  -5.927  -7.805  0.00  0.00    +0.213 C 
BRANCH  14  15
ATOM     15  C   ARG A   2       3.967  -7.033  -6.701  0.00  0.00    +0.255 C 
ATOM     16  O   ARG A   2       3.460  -8.113  -7.082  0.00  0.00    -0.203 OA
ATOM     17  OXT ARG A   2       4.335  -6.655  -5.524  0.00  0.00    -0.203 OA
ENDBRANCH  14  15
BRANCH  14  18
ATOM     18  CB  ARG A   2       5.716  -5.522  -7.648  0.00  0.00    +0.042 C 
BRANCH  18  19
ATOM     19  CG  ARG A   2       6.352  -4.937  -8.918  0.00  0.00    +0.027 C 
BRANCH  19  20
ATOM     20  CD  ARG A   2       5.519  -5.246 -10.163  0.00  0.00    +0.155 C 
BRANCH  20  21
ATOM     21  NE  ARG A   2       4.852  -4.010 -10.574  0.00  0.00    -0.218 NA
ATOM     22  CZ  ARG A   2       3.707  -4.132 -11.120  0.00  0.00    +0.106 C 
ATOM     23  NH1 ARG A   2       3.137  -5.256 -11.315  0.00  0.00    -0.234 NA
ATOM     24  NH2 ARG A   2       3.105  -3.061 -11.490  0.00  0.00    -0.234 NA
ATOM     25  H   ARG A   2       2.233  -5.117 -11.753  0.00  0.00    +0.200 HD
ATOM     26  H   ARG A   2       2.209  -3.289 -11.903  0.00  0.00    +0.200 HD
ENDBRANCH  20  21
ENDBRANCH  19  20
ENDBRANCH  18  19
ENDBRANCH  14  18
ENDBRANCH   3  14
TORSDOF 10
ENDMDL
MODEL 12
REMARK VINA RESULT:      -6.2      2.393      6.362
REMARK  Name = LR_min.pdb
REMARK  12 active torsions:
REMARK  status: ('A' for Active; 'I' for Inactive)
REMARK    1  A    between atoms: N_1  and  CA_2
REMARK    2  A    between atoms: CA_2  and  C_3
REMARK    3  A    between atoms: CA_2  and  CB_5
REMARK    4  A    between atoms: CB_5  and  CG_6
REMARK    5  A    between atoms: CG_6  and  CD1_7
REMARK    6  A    between atoms: CG_6  and  CD2_8
REMARK    7  A    between atoms: N_9  and  CA_10
REMARK    8  A    between atoms: CA_10  and  C_11
REMARK    9  A    between atoms: CA_10  and  CB_14
REMARK   10  A    between atoms: CB_14  and  CG_15
REMARK   11  A    between atoms: CG_15  and  CD_16
REMARK   12  A    between atoms: CD_16  and  NE_17
REMARK                            x       y       z     vdW  Elec       q    Type
REMARK                         _______ _______ _______ _____ _____    ______ ____
ROOT
ATOM      1  C   LEU A   1       1.964  -4.019  -8.104  0.00  0.00    +0.200 C 
ATOM      2  O   LEU A   1       2.223  -3.066  -8.828  0.00  0.00    -0.278 OA
ATOM      3  N   ARG A   2       2.386  -5.325  -8.339  0.00  0.00    -0.299 N 
ATOM      4  H   ARG A   2       1.992  -6.030  -7.738  0.00  0.00    +0.150 HD
ENDROOT
BRANCH   1   5
ATOM      5  CA  LEU A   1       1.124  -3.869  -6.824  0.00  0.00    +0.013 C 
BRANCH   5   6
ATOM      6  N   LEU A   1       0.806  -2.426  -6.558  0.00  0.00    +0.386 N 
ATOM      7  H   LEU A   1       1.729  -1.943  -6.302  0.00  0.00    -0.089 HD
ATOM      8  H   LEU A   1       0.180  -2.263  -5.768  0.00  0.00    -0.089 HD
ATOM      9  H   LEU A   1       0.496  -1.890  -7.371  0.00  0.00    -0.089 HD
ENDBRANCH   5   6
BRANCH   5  10
ATOM     10  CB  LEU A   1      -0.141  -4.707  -7.019  0.00  0.00    -0.004 C 
BRANCH  10  11
ATOM     11  CG  LEU A   1      -1.308  -4.502  -6.040  0.00  0.00    -0.018 C 
ATOM     12  CD1 LEU A   1      -2.481  -3.884  -6.816  0.00  0.00    +0.007 C 
ATOM     13  CD2 LEU A   1      -1.768  -5.803  -5.385  0.00  0.00    +0.007 C 
ENDBRANCH  10  11
ENDBRANCH   5  10
ENDBRANCH   1   5
BRANCH   3  14
ATOM     14  CA  ARG A   2       2.281  -5.787  -9.734  0.00  0.00    +0.213 C 
BRANCH  14  15
ATOM     15  C   ARG A   2       1.752  -7.283  -9.736  0.00  0.00    +0.255 C 
ATOM     16  O   ARG A   2       1.192  -7.693 -10.778  0.00  0.00    -0.203 OA
ATOM     17  OXT ARG A   2       1.995  -7.891  -8.626  0.00  0.00    -0.203 OA
ENDBRANCH  14  15
BRANCH  14  18
ATOM     18  CB  ARG A   2       3.670  -5.827 -10.400  0.00  0.00    +0.042 C 
BRANCH  18  19
ATOM     19  CG  ARG A   2       3.780  -4.996 -11.687  0.00  0.00    +0.027 C 
BRANCH  19  20
ATOM     20  CD  ARG A   2       2.435  -4.885 -12.407  0.00  0.00    +0.155 C 
BRANCH  20  21
ATOM     21  NE  ARG A   2       2.501  -5.713 -13.611  0.00  0.00    -0.218 NA
ATOM     22  CZ  ARG A   2       1.422  -6.290 -13.969  0.00  0.00    +0.106 C 
ATOM     23  NH1 ARG A   2       0.321  -6.178 -13.335  0.00  0.00    -0.234 NA
ATOM     24  NH2 ARG A   2       1.458  -7.023 -15.022  0.00  0.00    -0.234 NA
ATOM     25  H   ARG A   2      -0.404  -6.713 -13.799  0.00  0.00    +0.200 HD
ATOM     26  H   ARG A   2       0.544  -7.421 -15.201  0.00  0.00    +0.200 HD
ENDBRANCH  20  21
ENDBRANCH  19  20
ENDBRANCH  18  19
ENDBRANCH  14  18
ENDBRANCH   3  14
TORSDOF 10
ENDMDL
MODEL 13
REMARK VINA RESULT:      -6.1      3.403      7.017
REMARK  Name = LR_min.pdb
REMARK  12 active torsions:
REMARK  status: ('A' for Active; 'I' for Inactive)
REMARK    1  A    between atoms: N_1  and  CA_2
REMARK    2  A    between atoms: CA_2  and  C_3
REMARK    3  A    between atoms: CA_2  and  CB_5
REMARK    4  A    between atoms: CB_5  and  CG_6
REMARK    5  A    between atoms: CG_6  and  CD1_7
REMARK    6  A    between atoms: CG_6  and  CD2_8
REMARK    7  A    between atoms: N_9  and  CA_10
REMARK    8  A    between atoms: CA_10  and  C_11
REMARK    9  A    between atoms: CA_10  and  CB_14
REMARK   10  A    between atoms: CB_14  and  CG_15
REMARK   11  A    between atoms: CG_15  and  CD_16
REMARK   12  A    between atoms: CD_16  and  NE_17
REMARK                            x       y       z     vdW  Elec       q    Type
REMARK                         _______ _______ _______ _____ _____    ______ ____
ROOT
ATOM      1  C   LEU A   1       0.796  -3.951  -6.617  0.00  0.00    +0.200 C 
ATOM      2  O   LEU A   1       1.006  -2.746  -6.540  0.00  0.00    -0.278 OA
ATOM      3  N   ARG A   2       1.792  -4.923  -6.656  0.00  0.00    -0.299 N 
ATOM      4  H   ARG A   2       1.485  -5.861  -6.853  0.00  0.00    +0.150 HD
ENDROOT
BRANCH   1   5
ATOM      5  CA  LEU A   1      -0.627  -4.530  -6.679  0.00  0.00    +0.013 C 
BRANCH   5   6
ATOM      6  N   LEU A   1      -1.114  -4.903  -5.309  0.00  0.00    +0.386 N 
ATOM      7  H   LEU A   1      -1.727  -4.092  -4.963  0.00  0.00    -0.089 HD
ATOM      8  H   LEU A   1      -0.381  -5.015  -4.607  0.00  0.00    -0.089 HD
ATOM      9  H   LEU A   1      -1.760  -5.694  -5.276  0.00  0.00    -0.089 HD
ENDBRANCH   5   6
BRANCH   5  10
ATOM     10  CB  LEU A   1      -1.514  -3.468  -7.332  0.00  0.00    -0.004 C 
BRANCH  10  11
ATOM     11  CG  LEU A   1      -2.807  -3.057  -6.612  0.00  0.00    -0.018 C 
ATOM     12  CD1 LEU A   1      -3.111  -1.594  -6.970  0.00  0.00    +0.007 C 
ATOM     13  CD2 LEU A   1      -4.003  -3.927  -6.997  0.00  0.00    +0.007 C 
ENDBRANCH  10  11
ENDBRANCH   5  10
ENDBRANCH   1   5
BRANCH   3  14
ATOM     14  CA  ARG A   2       2.947  -4.618  -7.518  0.00  0.00    +0.213 C 
BRANCH  14  15
ATOM     15  C   ARG A   2       2.423  -4.344  -8.991  0.00  0.00    +0.255 C 
ATOM     16  O   ARG A   2       2.601  -3.197  -9.460  0.00  0.00    -0.203 OA
ATOM     17  OXT ARG A   2       1.879  -5.386  -9.521  0.00  0.00    -0.203 OA
ENDBRANCH  14  15
BRANCH  14  18
ATOM     18  CB  ARG A   2       3.886  -5.835  -7.621  0.00  0.00    +0.042 C 
BRANCH  18  19
ATOM     19  CG  ARG A   2       5.367  -5.478  -7.822  0.00  0.00    +0.027 C 
BRANCH  19  20
ATOM     20  CD  ARG A   2       6.291  -6.540  -7.226  0.00  0.00    +0.155 C 
BRANCH  20  21
ATOM     21  NE  ARG A   2       6.993  -5.939  -6.092  0.00  0.00    -0.218 NA
ATOM     22  CZ  ARG A   2       6.773  -6.451  -4.945  0.00  0.00    +0.106 C 
ATOM     23  NH1 ARG A   2       5.987  -7.436  -4.755  0.00  0.00    -0.234 NA
ATOM     24  NH2 ARG A   2       7.378  -5.937  -3.937  0.00  0.00    -0.234 NA
ATOM     25  H   ARG A   2       5.969  -7.683  -3.771  0.00  0.00    +0.200 HD
ATOM     26  H   ARG A   2       7.123  -6.430  -3.090  0.00  0.00    +0.200 HD
ENDBRANCH  20  21
ENDBRANCH  19  20
ENDBRANCH  18  19
ENDBRANCH  14  18
ENDBRANCH   3  14
TORSDOF 10
ENDMDL
MODEL 14
REMARK VINA RESULT:      -6.1      3.217      7.440
REMARK  Name = LR_min.pdb
REMARK  12 active torsions:
REMARK  status: ('A' for Active; 'I' for Inactive)
REMARK    1  A    between atoms: N_1  and  CA_2
REMARK    2  A    between atoms: CA_2  and  C_3
REMARK    3  A    between atoms: CA_2  and  CB_5
REMARK    4  A    between atoms: CB_5  and  CG_6
REMARK    5  A    between atoms: CG_6  and  CD1_7
REMARK    6  A    between atoms: CG_6  and  CD2_8
REMARK    7  A    between atoms: N_9  and  CA_10
REMARK    8  A    between atoms: CA_10  and  C_11
REMARK    9  A    between atoms: CA_10  and  CB_14
REMARK   10  A    between atoms: CB_14  and  CG_15
REMARK   11  A    between atoms: CG_15  and  CD_16
REMARK   12  A    between atoms: CD_16  and  NE_17
REMARK                            x       y       z     vdW  Elec       q    Type
REMARK                         _______ _______ _______ _____ _____    ______ ____
ROOT
ATOM      1  C   LEU A   1       2.309  -3.654  -8.525  0.00  0.00    +0.200 C 
ATOM      2  O   LEU A   1       2.311  -2.431  -8.581  0.00  0.00    -0.278 OA
ATOM      3  N   ARG A   2       2.996  -4.484  -9.407  0.00  0.00    -0.299 N 
ATOM      4  H   ARG A   2       2.802  -5.469  -9.328  0.00  0.00    +0.150 HD
ENDROOT
BRANCH   1   5
ATOM      5  CA  LEU A   1       1.530  -4.422  -7.445  0.00  0.00    +0.013 C 
BRANCH   5   6
ATOM      6  N   LEU A   1       2.431  -4.820  -6.313  0.00  0.00    +0.386 N 
ATOM      7  H   LEU A   1       3.166  -4.045  -6.210  0.00  0.00    -0.089 HD
ATOM      8  H   LEU A   1       2.957  -5.682  -6.465  0.00  0.00    -0.089 HD
ATOM      9  H   LEU A   1       1.994  -4.831  -5.390  0.00  0.00    -0.089 HD
ENDBRANCH   5   6
BRANCH   5  10
ATOM     10  CB  LEU A   1       0.395  -3.508  -6.977  0.00  0.00    -0.004 C 
BRANCH  10  11
ATOM     11  CG  LEU A   1      -1.042  -4.048  -7.025  0.00  0.00    -0.018 C 
ATOM     12  CD1 LEU A   1      -1.266  -4.923  -5.782  0.00  0.00    +0.007 C 
ATOM     13  CD2 LEU A   1      -2.093  -2.940  -7.056  0.00  0.00    +0.007 C 
ENDBRANCH  10  11
ENDBRANCH   5  10
ENDBRANCH   1   5
BRANCH   3  14
ATOM     14  CA  ARG A   2       2.919  -4.104 -10.829  0.00  0.00    +0.213 C 
BRANCH  14  15
ATOM     15  C   ARG A   2       2.200  -5.272 -11.628  0.00  0.00    +0.255 C 
ATOM     16  O   ARG A   2       1.487  -6.063 -10.971  0.00  0.00    -0.203 OA
ATOM     17  OXT ARG A   2       2.451  -5.229 -12.892  0.00  0.00    -0.203 OA
ENDBRANCH  14  15
BRANCH  14  18
ATOM     18  CB  ARG A   2       4.330  -3.980 -11.436  0.00  0.00    +0.042 C 
BRANCH  18  19
ATOM     19  CG  ARG A   2       5.422  -4.731 -10.660  0.00  0.00    +0.027 C 
BRANCH  19  20
ATOM     20  CD  ARG A   2       6.788  -4.601 -11.335  0.00  0.00    +0.155 C 
BRANCH  20  21
ATOM     21  NE  ARG A   2       7.763  -4.231 -10.309  0.00  0.00    -0.218 NA
ATOM     22  CZ  ARG A   2       8.867  -3.742 -10.717  0.00  0.00    +0.106 C 
ATOM     23  NH1 ARG A   2       9.146  -3.568 -11.949  0.00  0.00    -0.234 NA
ATOM     24  NH2 ARG A   2       9.737  -3.413  -9.834  0.00  0.00    -0.234 NA
ATOM     25  H   ARG A   2      10.070  -3.160 -12.044  0.00  0.00    +0.200 HD
ATOM     26  H   ARG A   2      10.564  -3.036 -10.281  0.00  0.00    +0.200 HD
ENDBRANCH  20  21
ENDBRANCH  19  20
ENDBRANCH  18  19
ENDBRANCH  14  18
ENDBRANCH   3  14
TORSDOF 10
ENDMDL
MODEL 15
REMARK VINA RESULT:      -6.1      1.861      2.488
REMARK  Name = LR_min.pdb
REMARK  12 active torsions:
REMARK  status: ('A' for Active; 'I' for Inactive)
REMARK    1  A    between atoms: N_1  and  CA_2
REMARK    2  A    between atoms: CA_2  and  C_3
REMARK    3  A    between atoms: CA_2  and  CB_5
REMARK    4  A    between atoms: CB_5  and  CG_6
REMARK    5  A    between atoms: CG_6  and  CD1_7
REMARK    6  A    between atoms: CG_6  and  CD2_8
REMARK    7  A    between atoms: N_9  and  CA_10
REMARK    8  A    between atoms: CA_10  and  C_11
REMARK    9  A    between atoms: CA_10  and  CB_14
REMARK   10  A    between atoms: CB_14  and  CG_15
REMARK   11  A    between atoms: CG_15  and  CD_16
REMARK   12  A    between atoms: CD_16  and  NE_17
REMARK                            x       y       z     vdW  Elec       q    Type
REMARK                         _______ _______ _______ _____ _____    ______ ____
ROOT
ATOM      1  C   LEU A   1       3.524  -3.948 -10.549  0.00  0.00    +0.200 C 
ATOM      2  O   LEU A   1       2.655  -3.190 -10.139  0.00  0.00    -0.278 OA
ATOM      3  N   ARG A   2       4.130  -4.941  -9.784  0.00  0.00    -0.299 N 
ATOM      4  H   ARG A   2       4.919  -5.403 -10.205  0.00  0.00    +0.150 HD
ENDROOT
BRANCH   1   5
ATOM      5  CA  LEU A   1       4.050  -3.884 -11.993  0.00  0.00    +0.013 C 
BRANCH   5   6
ATOM      6  N   LEU A   1       5.543  -3.730 -12.014  0.00  0.00    +0.386 N 
ATOM      7  H   LEU A   1       5.926  -4.473 -12.687  0.00  0.00    -0.089 HD
ATOM      8  H   LEU A   1       6.006  -3.901 -11.121  0.00  0.00    -0.089 HD
ATOM      9  H   LEU A   1       5.886  -2.861 -12.430  0.00  0.00    -0.089 HD
ENDBRANCH   5   6
BRANCH   5  10
ATOM     10  CB  LEU A   1       3.598  -5.170 -12.691  0.00  0.00    -0.004 C 
BRANCH  10  11
ATOM     11  CG  LEU A   1       2.096  -5.374 -12.936  0.00  0.00    -0.018 C 
ATOM     12  CD1 LEU A   1       1.905  -5.822 -14.394  0.00  0.00    +0.007 C 
ATOM     13  CD2 LEU A   1       1.479  -6.418 -12.006  0.00  0.00    +0.007 C 
ENDBRANCH  10  11
ENDBRANCH   5  10
ENDBRANCH   1   5
BRANCH   3  14
ATOM     14  CA  ARG A   2       4.494  -4.552  -8.410  0.00  0.00    +0.213 C 
BRANCH  14  15
ATOM     15  C   ARG A   2       6.061  -4.726  -8.230  0.00  0.00    +0.255 C 
ATOM     16  O   ARG A   2       6.458  -5.337  -7.213  0.00  0.00    -0.203 OA
ATOM     17  OXT ARG A   2       6.728  -4.206  -9.203  0.00  0.00    -0.203 OA
ENDBRANCH  14  15
BRANCH  14  18
ATOM     18  CB  ARG A   2       3.841  -5.500  -7.385  0.00  0.00    +0.042 C 
BRANCH  18  19
ATOM     19  CG  ARG A   2       2.711  -6.370  -7.957  0.00  0.00    +0.027 C 
BRANCH  19  20
ATOM     20  CD  ARG A   2       1.343  -5.712  -7.777  0.00  0.00    +0.155 C 
BRANCH  20  21
ATOM     21  NE  ARG A   2       1.548  -4.423  -7.115  0.00  0.00    -0.218 NA
ATOM     22  CZ  ARG A   2       0.526  -3.671  -6.995  0.00  0.00    +0.106 C 
ATOM     23  NH1 ARG A   2      -0.634  -3.990  -7.418  0.00  0.00    -0.234 NA
ATOM     24  NH2 ARG A   2       0.684  -2.536  -6.419  0.00  0.00    -0.234 NA
ATOM     25  H   ARG A   2      -1.296  -3.250  -7.210  0.00  0.00    +0.200 HD
ATOM     26  H   ARG A   2      -0.196  -2.037  -6.383  0.00  0.00    +0.200 HD
ENDBRANCH  20  21
ENDBRANCH  19  20
ENDBRANCH  18  19
ENDBRANCH  14  18
ENDBRANCH   3  14
TORSDOF 10
ENDMDL
MODEL 16
REMARK VINA RESULT:      -6.1      3.384      6.683
REMARK  Name = LR_min.pdb
REMARK  12 active torsions:
REMARK  status: ('A' for Active; 'I' for Inactive)
REMARK    1  A    between atoms: N_1  and  CA_2
REMARK    2  A    between atoms: CA_2  and  C_3
REMARK    3  A    between atoms: CA_2  and  CB_5
REMARK    4  A    between atoms: CB_5  and  CG_6
REMARK    5  A    between atoms: CG_6  and  CD1_7
REMARK    6  A    between atoms: CG_6  and  CD2_8
REMARK    7  A    between atoms: N_9  and  CA_10
REMARK    8  A    between atoms: CA_10  and  C_11
REMARK    9  A    between atoms: CA_10  and  CB_14
REMARK   10  A    between atoms: CB_14  and  CG_15
REMARK   11  A    between atoms: CG_15  and  CD_16
REMARK   12  A    between atoms: CD_16  and  NE_17
REMARK                            x       y       z     vdW  Elec       q    Type
REMARK                         _______ _______ _______ _____ _____    ______ ____
ROOT
ATOM      1  C   LEU A   1       2.064  -3.695  -7.875  0.00  0.00    +0.200 C 
ATOM      2  O   LEU A   1       2.139  -2.860  -8.768  0.00  0.00    -0.278 OA
ATOM      3  N   ARG A   2       2.853  -4.840  -7.798  0.00  0.00    -0.299 N 
ATOM      4  H   ARG A   2       2.597  -5.505  -7.088  0.00  0.00    +0.150 HD
ENDROOT
BRANCH   1   5
ATOM      5  CA  LEU A   1       1.066  -3.562  -6.713  0.00  0.00    +0.013 C 
BRANCH   5   6
ATOM      6  N   LEU A   1       0.702  -2.124  -6.480  0.00  0.00    +0.386 N 
ATOM      7  H   LEU A   1       0.861  -1.607  -7.407  0.00  0.00    -0.089 HD
ATOM      8  H   LEU A   1       1.279  -1.640  -5.790  0.00  0.00    -0.089 HD
ATOM      9  H   LEU A   1      -0.288  -1.949  -6.298  0.00  0.00    -0.089 HD
ENDBRANCH   5   6
BRANCH   5  10
ATOM     10  CB  LEU A   1      -0.156  -4.410  -7.073  0.00  0.00    -0.004 C 
BRANCH  10  11
ATOM     11  CG  LEU A   1      -1.373  -4.366  -6.137  0.00  0.00    -0.018 C 
ATOM     12  CD1 LEU A   1      -2.590  -3.904  -6.954  0.00  0.00    +0.007 C 
ATOM     13  CD2 LEU A   1      -1.681  -5.721  -5.500  0.00  0.00    +0.007 C 
ENDBRANCH  10  11
ENDBRANCH   5  10
ENDBRANCH   1   5
BRANCH   3  14
ATOM     14  CA  ARG A   2       3.049  -5.564  -9.067  0.00  0.00    +0.213 C 
BRANCH  14  15
ATOM     15  C   ARG A   2       2.219  -6.915  -9.015  0.00  0.00    +0.255 C 
ATOM     16  O   ARG A   2       1.553  -7.220 -10.031  0.00  0.00    -0.203 OA
ATOM     17  OXT ARG A   2       2.364  -7.538  -7.896  0.00  0.00    -0.203 OA
ENDBRANCH  14  15
BRANCH  14  18
ATOM     18  CB  ARG A   2       4.523  -5.977  -9.235  0.00  0.00    +0.042 C 
BRANCH  18  19
ATOM     19  CG  ARG A   2       5.440  -5.537  -8.083  0.00  0.00    +0.027 C 
BRANCH  19  20
ATOM     20  CD  ARG A   2       5.852  -6.719  -7.205  0.00  0.00    +0.155 C 
BRANCH  20  21
ATOM     21  NE  ARG A   2       6.837  -6.237  -6.236  0.00  0.00    -0.218 NA
ATOM     22  CZ  ARG A   2       6.609  -6.496  -5.009  0.00  0.00    +0.106 C 
ATOM     23  NH1 ARG A   2       5.584  -7.139  -4.606  0.00  0.00    -0.234 NA
ATOM     24  NH2 ARG A   2       7.459  -6.080  -4.143  0.00  0.00    -0.234 NA
ATOM     25  H   ARG A   2       5.609  -7.236  -3.597  0.00  0.00    +0.200 HD
ATOM     26  H   ARG A   2       7.168  -6.349  -3.212  0.00  0.00    +0.200 HD
ENDBRANCH  20  21
ENDBRANCH  19  20
ENDBRANCH  18  19
ENDBRANCH  14  18
ENDBRANCH   3  14
TORSDOF 10
ENDMDL
MODEL 17
REMARK VINA RESULT:      -6.1      2.167      5.990
REMARK  Name = LR_min.pdb
REMARK  12 active torsions:
REMARK  status: ('A' for Active; 'I' for Inactive)
REMARK    1  A    between atoms: N_1  and  CA_2
REMARK    2  A    between atoms: CA_2  and  C_3
REMARK    3  A    between atoms: CA_2  and  CB_5
REMARK    4  A    between atoms: CB_5  and  CG_6
REMARK    5  A    between atoms: CG_6  and  CD1_7
REMARK    6  A    between atoms: CG_6  and  CD2_8
REMARK    7  A    between atoms: N_9  and  CA_10
REMARK    8  A    between atoms: CA_10  and  C_11
REMARK    9  A    between atoms: CA_10  and  CB_14
REMARK   10  A    between atoms: CB_14  and  CG_15
REMARK   11  A    between atoms: CG_15  and  CD_16
REMARK   12  A    between atoms: CD_16  and  NE_17
REMARK                            x       y       z     vdW  Elec       q    Type
REMARK                         _______ _______ _______ _____ _____    ______ ____
ROOT
ATOM      1  C   LEU A   1       1.845  -5.070  -8.302  0.00  0.00    +0.200 C 
ATOM      2  O   LEU A   1       1.372  -5.981  -8.969  0.00  0.00    -0.278 OA
ATOM      3  N   ARG A   2       3.038  -4.414  -8.597  0.00  0.00    -0.299 N 
ATOM      4  H   ARG A   2       3.376  -3.777  -7.895  0.00  0.00    +0.150 HD
ENDROOT
BRANCH   1   5
ATOM      5  CA  LEU A   1       1.152  -4.537  -7.037  0.00  0.00    +0.013 C 
BRANCH   5   6
ATOM      6  N   LEU A   1       1.211  -3.038  -6.983  0.00  0.00    +0.386 N 
ATOM      7  H   LEU A   1       1.965  -2.729  -7.681  0.00  0.00    -0.089 HD
ATOM      8  H   LEU A   1       1.492  -2.651  -6.081  0.00  0.00    -0.089 HD
ATOM      9  H   LEU A   1       0.380  -2.556  -7.332  0.00  0.00    -0.089 HD
ENDBRANCH   5   6
BRANCH   5  10
ATOM     10  CB  LEU A   1      -0.290  -5.051  -7.067  0.00  0.00    -0.004 C 
BRANCH  10  11
ATOM     11  CG  LEU A   1      -1.242  -4.612  -5.945  0.00  0.00    -0.018 C 
ATOM     12  CD1 LEU A   1      -2.367  -3.774  -6.572  0.00  0.00    +0.007 C 
ATOM     13  CD2 LEU A   1      -1.855  -5.792  -5.191  0.00  0.00    +0.007 C 
ENDBRANCH  10  11
ENDBRANCH   5  10
ENDBRANCH   1   5
BRANCH   3  14
ATOM     14  CA  ARG A   2       4.153  -5.281  -9.018  0.00  0.00    +0.213 C 
BRANCH  14  15
ATOM     15  C   ARG A   2       5.376  -5.049  -8.034  0.00  0.00    +0.255 C 
ATOM     16  O   ARG A   2       5.441  -5.777  -7.018  0.00  0.00    -0.203 OA
ATOM     17  OXT ARG A   2       6.166  -4.116  -8.444  0.00  0.00    -0.203 OA
ENDBRANCH  14  15
BRANCH  14  18
ATOM     18  CB  ARG A   2       4.653  -4.881 -10.419  0.00  0.00    +0.042 C 
BRANCH  18  19
ATOM     19  CG  ARG A   2       3.971  -5.631 -11.574  0.00  0.00    +0.027 C 
BRANCH  19  20
ATOM     20  CD  ARG A   2       2.895  -4.778 -12.246  0.00  0.00    +0.155 C 
BRANCH  20  21
ATOM     21  NE  ARG A   2       1.658  -5.558 -12.277  0.00  0.00    -0.218 NA
ATOM     22  CZ  ARG A   2       1.264  -5.963 -13.420  0.00  0.00    +0.106 C 
ATOM     23  NH1 ARG A   2       1.889  -5.720 -14.505  0.00  0.00    -0.234 NA
ATOM     24  NH2 ARG A   2       0.180  -6.648 -13.470  0.00  0.00    -0.234 NA
ATOM     25  H   ARG A   2       1.404  -6.143 -15.289  0.00  0.00    +0.200 HD
ATOM     26  H   ARG A   2      -0.022  -6.911 -14.427  0.00  0.00    +0.200 HD
ENDBRANCH  20  21
ENDBRANCH  19  20
ENDBRANCH  18  19
ENDBRANCH  14  18
ENDBRANCH   3  14
TORSDOF 10
ENDMDL
MODEL 18
REMARK VINA RESULT:      -6.1      1.826      2.277
REMARK  Name = LR_min.pdb
REMARK  12 active torsions:
REMARK  status: ('A' for Active; 'I' for Inactive)
REMARK    1  A    between atoms: N_1  and  CA_2
REMARK    2  A    between atoms: CA_2  and  C_3
REMARK    3  A    between atoms: CA_2  and  CB_5
REMARK    4  A    between atoms: CB_5  and  CG_6
REMARK    5  A    between atoms: CG_6  and  CD1_7
REMARK    6  A    between atoms: CG_6  and  CD2_8
REMARK    7  A    between atoms: N_9  and  CA_10
REMARK    8  A    between atoms: CA_10  and  C_11
REMARK    9  A    between atoms: CA_10  and  CB_14
REMARK   10  A    between atoms: CB_14  and  CG_15
REMARK   11  A    between atoms: CG_15  and  CD_16
REMARK   12  A    between atoms: CD_16  and  NE_17
REMARK                            x       y       z     vdW  Elec       q    Type
REMARK                         _______ _______ _______ _____ _____    ______ ____
ROOT
ATOM      1  C   LEU A   1       2.218  -5.240 -10.637  0.00  0.00    +0.200 C 
ATOM      2  O   LEU A   1       2.465  -4.254 -11.320  0.00  0.00    -0.278 OA
ATOM      3  N   ARG A   2       1.679  -5.196  -9.354  0.00  0.00    -0.299 N 
ATOM      4  H   ARG A   2       1.650  -6.071  -8.858  0.00  0.00    +0.150 HD
ENDROOT
BRANCH   1   5
ATOM      5  CA  LEU A   1       2.479  -6.669 -11.141  0.00  0.00    +0.013 C 
BRANCH   5   6
ATOM      6  N   LEU A   1       3.925  -7.040 -10.978  0.00  0.00    +0.386 N 
ATOM      7  H   LEU A   1       4.258  -6.604 -10.057  0.00  0.00    -0.089 HD
ATOM      8  H   LEU A   1       4.547  -6.673 -11.700  0.00  0.00    -0.089 HD
ATOM      9  H   LEU A   1       4.105  -8.035 -10.827  0.00  0.00    -0.089 HD
ENDBRANCH   5   6
BRANCH   5  10
ATOM     10  CB  LEU A   1       1.557  -7.599 -10.347  0.00  0.00    -0.004 C 
BRANCH  10  11
ATOM     11  CG  LEU A   1       2.178  -8.823  -9.657  0.00  0.00    -0.018 C 
ATOM     12  CD1 LEU A   1       2.118  -8.598  -8.139  0.00  0.00    +0.007 C 
ATOM     13  CD2 LEU A   1       1.459 -10.126 -10.001  0.00  0.00    +0.007 C 
ENDBRANCH  10  11
ENDBRANCH   5  10
ENDBRANCH   1   5
BRANCH   3  14
ATOM     14  CA  ARG A   2       2.247  -4.170  -8.461  0.00  0.00    +0.213 C 
BRANCH  14  15
ATOM     15  C   ARG A   2       3.588  -4.734  -7.827  0.00  0.00    +0.255 C 
ATOM     16  O   ARG A   2       3.480  -5.605  -6.935  0.00  0.00    -0.203 OA
ATOM     17  OXT ARG A   2       4.640  -4.204  -8.352  0.00  0.00    -0.203 OA
ENDBRANCH  14  15
BRANCH  14  18
ATOM     18  CB  ARG A   2       1.300  -3.896  -7.277  0.00  0.00    +0.042 C 
BRANCH  18  19
ATOM     19  CG  ARG A   2      -0.030  -4.662  -7.338  0.00  0.00    +0.027 C 
BRANCH  19  20
ATOM     20  CD  ARG A   2      -0.957  -4.279  -6.184  0.00  0.00    +0.155 C 
BRANCH  20  21
ATOM     21  NE  ARG A   2      -2.301  -4.089  -6.731  0.00  0.00    -0.218 NA
ATOM     22  CZ  ARG A   2      -2.755  -2.898  -6.736  0.00  0.00    +0.106 C 
ATOM     23  NH1 ARG A   2      -2.103  -1.896  -6.293  0.00  0.00    -0.234 NA
ATOM     24  NH2 ARG A   2      -3.932  -2.710  -7.210  0.00  0.00    -0.234 NA
ATOM     25  H   ARG A   2      -2.650  -1.049  -6.402  0.00  0.00    +0.200 HD
ATOM     26  H   ARG A   2      -4.175  -1.728  -7.161  0.00  0.00    +0.200 HD
ENDBRANCH  20  21
ENDBRANCH  19  20
ENDBRANCH  18  19
ENDBRANCH  14  18
ENDBRANCH   3  14
TORSDOF 10
ENDMDL
MODEL 19
REMARK VINA RESULT:      -5.9      6.763      9.851
REMARK  Name = LR_min.pdb
REMARK  12 active torsions:
REMARK  status: ('A' for Active; 'I' for Inactive)
REMARK    1  A    between atoms: N_1  and  CA_2
REMARK    2  A    between atoms: CA_2  and  C_3
REMARK    3  A    between atoms: CA_2  and  CB_5
REMARK    4  A    between atoms: CB_5  and  CG_6
REMARK    5  A    between atoms: CG_6  and  CD1_7
REMARK    6  A    between atoms: CG_6  and  CD2_8
REMARK    7  A    between atoms: N_9  and  CA_10
REMARK    8  A    between atoms: CA_10  and  C_11
REMARK    9  A    between atoms: CA_10  and  CB_14
REMARK   10  A    between atoms: CB_14  and  CG_15
REMARK   11  A    between atoms: CG_15  and  CD_16
REMARK   12  A    between atoms: CD_16  and  NE_17
REMARK                            x       y       z     vdW  Elec       q    Type
REMARK                         _______ _______ _______ _____ _____    ______ ____
ROOT
ATOM      1  C   LEU A   1       6.815  -3.576 -12.844  0.00  0.00    +0.200 C 
ATOM      2  O   LEU A   1       5.902  -2.980 -13.402  0.00  0.00    -0.278 OA
ATOM      3  N   ARG A   2       8.145  -3.163 -12.849  0.00  0.00    -0.299 N 
ATOM      4  H   ARG A   2       8.810  -3.814 -12.465  0.00  0.00    +0.150 HD
ENDROOT
BRANCH   1   5
ATOM      5  CA  LEU A   1       6.581  -4.875 -12.055  0.00  0.00    +0.013 C 
BRANCH   5   6
ATOM      6  N   LEU A   1       7.875  -5.597 -11.814  0.00  0.00    +0.386 N 
ATOM      7  H   LEU A   1       8.081  -5.528 -10.763  0.00  0.00    -0.089 HD
ATOM      8  H   LEU A   1       8.687  -5.192 -12.282  0.00  0.00    -0.089 HD
ATOM      9  H   LEU A   1       7.847  -6.607 -11.966  0.00  0.00    -0.089 HD
ENDBRANCH   5   6
BRANCH   5  10
ATOM     10  CB  LEU A   1       5.891  -4.485 -10.746  0.00  0.00    -0.004 C 
BRANCH  10  11
ATOM     11  CG  LEU A   1       4.427  -4.902 -10.543  0.00  0.00    -0.018 C 
ATOM     12  CD1 LEU A   1       4.177  -5.055  -9.035  0.00  0.00    +0.007 C 
ATOM     13  CD2 LEU A   1       3.436  -3.890 -11.116  0.00  0.00    +0.007 C 
ENDBRANCH  10  11
ENDBRANCH   5  10
ENDBRANCH   1   5
BRANCH   3  14
ATOM     14  CA  ARG A   2       8.656  -2.681 -14.144  0.00  0.00    +0.213 C 
BRANCH  14  15
ATOM     15  C   ARG A   2       9.131  -3.930 -15.000  0.00  0.00    +0.255 C 
ATOM     16  O   ARG A   2       8.883  -3.914 -16.227  0.00  0.00    -0.203 OA
ATOM     17  OXT ARG A   2       9.742  -4.812 -14.284  0.00  0.00    -0.203 OA
ENDBRANCH  14  15
BRANCH  14  18
ATOM     18  CB  ARG A   2       9.906  -1.804 -13.943  0.00  0.00    +0.042 C 
BRANCH  18  19
ATOM     19  CG  ARG A   2       9.797  -0.395 -14.546  0.00  0.00    +0.027 C 
BRANCH  19  20
ATOM     20  CD  ARG A   2       9.833  -0.430 -16.075  0.00  0.00    +0.155 C 
BRANCH  20  21
ATOM     21  NE  ARG A   2       8.505  -0.061 -16.564  0.00  0.00    -0.218 NA
ATOM     22  CZ  ARG A   2       8.067  -0.706 -17.573  0.00  0.00    +0.106 C 
ATOM     23  NH1 ARG A   2       8.724  -1.631 -18.155  0.00  0.00    -0.234 NA
ATOM     24  NH2 ARG A   2       6.904  -0.397 -18.019  0.00  0.00    -0.234 NA
ATOM     25  H   ARG A   2       8.184  -2.010 -18.925  0.00  0.00    +0.200 HD
ATOM     26  H   ARG A   2       6.670  -0.979 -18.815  0.00  0.00    +0.200 HD
ENDBRANCH  20  21
ENDBRANCH  19  20
ENDBRANCH  18  19
ENDBRANCH  14  18
ENDBRANCH   3  14
TORSDOF 10
ENDMDL
MODEL 20
REMARK VINA RESULT:      -5.9      3.354      6.691
REMARK  Name = LR_min.pdb
REMARK  12 active torsions:
REMARK  status: ('A' for Active; 'I' for Inactive)
REMARK    1  A    between atoms: N_1  and  CA_2
REMARK    2  A    between atoms: CA_2  and  C_3
REMARK    3  A    between atoms: CA_2  and  CB_5
REMARK    4  A    between atoms: CB_5  and  CG_6
REMARK    5  A    between atoms: CG_6  and  CD1_7
REMARK    6  A    between atoms: CG_6  and  CD2_8
REMARK    7  A    between atoms: N_9  and  CA_10
REMARK    8  A    between atoms: CA_10  and  C_11
REMARK    9  A    between atoms: CA_10  and  CB_14
REMARK   10  A    between atoms: CB_14  and  CG_15
REMARK   11  A    between atoms: CG_15  and  CD_16
REMARK   12  A    between atoms: CD_16  and  NE_17
REMARK                            x       y       z     vdW  Elec       q    Type
REMARK                         _______ _______ _______ _____ _____    ______ ____
ROOT
ATOM      1  C   LEU A   1       2.779  -5.137  -7.444  0.00  0.00    +0.200 C 
ATOM      2  O   LEU A   1       3.290  -5.629  -6.445  0.00  0.00    -0.278 OA
ATOM      3  N   ARG A   2       3.161  -5.429  -8.750  0.00  0.00    -0.299 N 
ATOM      4  H   ARG A   2       2.749  -4.857  -9.469  0.00  0.00    +0.150 HD
ENDROOT
BRANCH   1   5
ATOM      5  CA  LEU A   1       1.628  -4.121  -7.357  0.00  0.00    +0.013 C 
BRANCH   5   6
ATOM      6  N   LEU A   1       1.600  -3.235  -8.569  0.00  0.00    +0.386 N 
ATOM      7  H   LEU A   1       2.015  -3.801  -9.380  0.00  0.00    -0.089 HD
ATOM      8  H   LEU A   1       2.172  -2.392  -8.498  0.00  0.00    -0.089 HD
ATOM      9  H   LEU A   1       0.668  -3.003  -8.918  0.00  0.00    -0.089 HD
ENDBRANCH   5   6
BRANCH   5  10
ATOM     10  CB  LEU A   1       0.333  -4.924  -7.207  0.00  0.00    -0.004 C 
BRANCH  10  11
ATOM     11  CG  LEU A   1      -0.749  -4.390  -6.256  0.00  0.00    -0.018 C 
ATOM     12  CD1 LEU A   1      -1.674  -3.462  -7.057  0.00  0.00    +0.007 C 
ATOM     13  CD2 LEU A   1      -1.580  -5.502  -5.619  0.00  0.00    +0.007 C 
ENDBRANCH  10  11
ENDBRANCH   5  10
ENDBRANCH   1   5
BRANCH   3  14
ATOM     14  CA  ARG A   2       4.614  -5.503  -8.987  0.00  0.00    +0.213 C 
BRANCH  14  15
ATOM     15  C   ARG A   2       4.968  -4.617 -10.255  0.00  0.00    +0.255 C 
ATOM     16  O   ARG A   2       6.110  -4.752 -10.750  0.00  0.00    -0.203 OA
ATOM     17  OXT ARG A   2       3.986  -3.864 -10.618  0.00  0.00    -0.203 OA
ENDBRANCH  14  15
BRANCH  14  18
ATOM     18  CB  ARG A   2       5.035  -6.941  -9.342  0.00  0.00    +0.042 C 
BRANCH  18  19
ATOM     19  CG  ARG A   2       6.320  -7.416  -8.647  0.00  0.00    +0.027 C 
BRANCH  19  20
ATOM     20  CD  ARG A   2       6.068  -7.791  -7.186  0.00  0.00    +0.155 C 
BRANCH  20  21
ATOM     21  NE  ARG A   2       6.780  -6.829  -6.346  0.00  0.00    -0.218 NA
ATOM     22  CZ  ARG A   2       6.623  -6.941  -5.086  0.00  0.00    +0.106 C 
ATOM     23  NH1 ARG A   2       5.888  -7.834  -4.547  0.00  0.00    -0.234 NA
ATOM     24  NH2 ARG A   2       7.237  -6.106  -4.330  0.00  0.00    -0.234 NA
ATOM     25  H   ARG A   2       5.915  -7.743  -3.537  0.00  0.00    +0.200 HD
ATOM     26  H   ARG A   2       7.034  -6.301  -3.358  0.00  0.00    +0.200 HD
ENDBRANCH  20  21
ENDBRANCH  19  20
ENDBRANCH  18  19
ENDBRANCH  14  18
ENDBRANCH   3  14
TORSDOF 10
ENDMDL
