MODEL 1
REMARK VINA RESULT:      -7.4      0.000      0.000
REMARK  Name = Pro-AMC_min.pdb
REMARK  3 active torsions:
REMARK  status: ('A' for Active; 'I' for Inactive)
REMARK    1  A    between atoms: C1_1  and  C2_2
REMARK    2  A    between atoms: C7_9  and  N1_10
REMARK    3  A    between atoms: C8_11  and  C9_13
REMARK                            x       y       z     vdW  Elec       q    Type
REMARK                         _______ _______ _______ _____ _____    ______ ____
ROOT
ATOM      1  C1  UNL     1       5.845  -6.384  -8.498  0.00  0.00    +0.045 C 
ATOM      2  C2  UNL     1       4.950  -5.397  -9.185  0.00  0.00    -0.033 A 
ATOM      3  C3  UNL     1       5.217  -4.966 -10.425  0.00  0.00    +0.096 A 
ATOM      4  C4  UNL     1       4.369  -4.009 -11.157  0.00  0.00    +0.337 A 
ATOM      5  O1  UNL     1       4.682  -3.629 -12.279  0.00  0.00    -0.245 OA
ATOM      6  O2  UNL     1       3.224  -3.579 -10.514  0.00  0.00    -0.422 OA
ATOM      7  C5  UNL     1       2.913  -4.018  -9.213  0.00  0.00    +0.141 A 
ATOM      8  C6  UNL     1       1.727  -3.522  -8.668  0.00  0.00    +0.070 A 
ATOM      9  C7  UNL     1       1.349  -3.886  -7.376  0.00  0.00    +0.037 A 
ATOM     10  C13 UNL     1       2.192  -4.717  -6.634  0.00  0.00    +0.024 A 
ATOM     11  C14 UNL     1       3.371  -5.231  -7.206  0.00  0.00    +0.013 A 
ATOM     12  C15 UNL     1       3.744  -4.890  -8.512  0.00  0.00    +0.021 A 
ENDROOT
BRANCH   9  13
ATOM     13  N1  UNL     1       0.155  -3.414  -6.787  0.00  0.00    -0.284 N 
ATOM     14  C8  UNL     1      -0.947  -4.220  -6.523  0.00  0.00    +0.234 C 
ATOM     15  O3  UNL     1      -0.918  -5.449  -6.548  0.00  0.00    -0.274 OA
ATOM     16  H6  UNL     1       0.167  -2.487  -6.382  0.00  0.00    +0.155 HD
BRANCH  14  17
ATOM     17  C9  UNL     1      -2.219  -3.431  -6.135  0.00  0.00    +0.141 C 
ATOM     18  C10 UNL     1      -3.393  -3.790  -7.032  0.00  0.00    +0.029 C 
ATOM     19  C11 UNL     1      -3.394  -2.702  -8.088  0.00  0.00    +0.017 C 
ATOM     20  C12 UNL     1      -2.878  -1.484  -7.348  0.00  0.00    +0.081 C 
ATOM     21  N2  UNL     1      -1.978  -1.988  -6.316  0.00  0.00    -0.306 NA
ATOM     22  H14 UNL     1      -2.081  -1.472  -5.447  0.00  0.00    +0.123 HD
ENDBRANCH  14  17
ENDBRANCH   9  13
TORSDOF 2
ENDMDL
MODEL 2
REMARK VINA RESULT:      -7.3      5.809      9.853
REMARK  Name = Pro-AMC_min.pdb
REMARK  3 active torsions:
REMARK  status: ('A' for Active; 'I' for Inactive)
REMARK    1  A    between atoms: C1_1  and  C2_2
REMARK    2  A    between atoms: C7_9  and  N1_10
REMARK    3  A    between atoms: C8_11  and  C9_13
REMARK                            x       y       z     vdW  Elec       q    Type
REMARK                         _______ _______ _______ _____ _____    ______ ____
ROOT
ATOM      1  C1  UNL     1       2.859  -4.751 -10.410  0.00  0.00    +0.045 C 
ATOM      2  C2  UNL     1       4.325  -4.684 -10.104  0.00  0.00    -0.033 A 
ATOM      3  C3  UNL     1       4.789  -4.943  -8.874  0.00  0.00    +0.096 A 
ATOM      4  C4  UNL     1       6.217  -4.908  -8.515  0.00  0.00    +0.337 A 
ATOM      5  O1  UNL     1       6.578  -5.125  -7.365  0.00  0.00    -0.245 OA
ATOM      6  O2  UNL     1       7.104  -4.622  -9.535  0.00  0.00    -0.422 OA
ATOM      7  C5  UNL     1       6.649  -4.351 -10.840  0.00  0.00    +0.141 A 
ATOM      8  C6  UNL     1       7.637  -4.082 -11.789  0.00  0.00    +0.070 A 
ATOM      9  C7  UNL     1       7.278  -3.781 -13.103  0.00  0.00    +0.037 A 
ATOM     10  C13 UNL     1       5.922  -3.717 -13.434  0.00  0.00    +0.024 A 
ATOM     11  C14 UNL     1       4.938  -4.017 -12.474  0.00  0.00    +0.013 A 
ATOM     12  C15 UNL     1       5.292  -4.345 -11.160  0.00  0.00    +0.021 A 
ENDROOT
BRANCH   9  13
ATOM     13  N1  UNL     1       8.243  -3.510 -14.097  0.00  0.00    -0.284 N 
ATOM     14  C8  UNL     1       8.880  -2.282 -14.241  0.00  0.00    +0.234 C 
ATOM     15  O3  UNL     1       8.853  -1.394 -13.391  0.00  0.00    -0.274 OA
ATOM     16  H6  UNL     1       8.613  -4.295 -14.617  0.00  0.00    +0.155 HD
BRANCH  14  17
ATOM     17  C9  UNL     1       9.682  -2.145 -15.555  0.00  0.00    +0.141 C 
ATOM     18  C10 UNL     1       9.959  -0.687 -15.890  0.00  0.00    +0.029 C 
ATOM     19  C11 UNL     1       8.858  -0.320 -16.866  0.00  0.00    +0.017 C 
ATOM     20  C12 UNL     1       8.595  -1.613 -17.612  0.00  0.00    +0.081 C 
ATOM     21  N2  UNL     1       8.893  -2.689 -16.674  0.00  0.00    -0.306 NA
ATOM     22  H14 UNL     1       9.365  -3.464 -17.133  0.00  0.00    +0.123 HD
ENDBRANCH  14  17
ENDBRANCH   9  13
TORSDOF 2
ENDMDL
MODEL 3
REMARK VINA RESULT:      -7.3      1.778      1.984
REMARK  Name = Pro-AMC_min.pdb
REMARK  3 active torsions:
REMARK  status: ('A' for Active; 'I' for Inactive)
REMARK    1  A    between atoms: C1_1  and  C2_2
REMARK    2  A    between atoms: C7_9  and  N1_10
REMARK    3  A    between atoms: C8_11  and  C9_13
REMARK                            x       y       z     vdW  Elec       q    Type
REMARK                         _______ _______ _______ _____ _____    ______ ____
ROOT
ATOM      1  C1  UNL     1       5.089  -8.478  -9.065  0.00  0.00    +0.045 C 
ATOM      2  C2  UNL     1       4.922  -7.009  -8.813  0.00  0.00    -0.033 A 
ATOM      3  C3  UNL     1       5.955  -6.164  -8.932  0.00  0.00    +0.096 A 
ATOM      4  C4  UNL     1       5.849  -4.711  -8.712  0.00  0.00    +0.337 A 
ATOM      5  O1  UNL     1       6.837  -3.992  -8.807  0.00  0.00    -0.245 OA
ATOM      6  O2  UNL     1       4.596  -4.221  -8.400  0.00  0.00    -0.422 OA
ATOM      7  C5  UNL     1       3.490  -5.083  -8.274  0.00  0.00    +0.141 A 
ATOM      8  C6  UNL     1       2.272  -4.474  -7.963  0.00  0.00    +0.070 A 
ATOM      9  C7  UNL     1       1.126  -5.252  -7.797  0.00  0.00    +0.037 A 
ATOM     10  C13 UNL     1       1.231  -6.641  -7.908  0.00  0.00    +0.024 A 
ATOM     11  C14 UNL     1       2.459  -7.239  -8.248  0.00  0.00    +0.013 A 
ATOM     12  C15 UNL     1       3.608  -6.462  -8.442  0.00  0.00    +0.021 A 
ENDROOT
BRANCH   9  13
ATOM     13  N1  UNL     1      -0.126  -4.679  -7.489  0.00  0.00    -0.284 N 
ATOM     14  C8  UNL     1      -0.286  -3.553  -6.688  0.00  0.00    +0.234 C 
ATOM     15  O3  UNL     1       0.638  -2.807  -6.365  0.00  0.00    -0.274 OA
ATOM     16  H6  UNL     1      -0.930  -4.999  -8.014  0.00  0.00    +0.155 HD
BRANCH  14  17
ATOM     17  C9  UNL     1      -1.750  -3.281  -6.275  0.00  0.00    +0.141 C 
ATOM     18  C10 UNL     1      -2.731  -3.893  -7.263  0.00  0.00    +0.029 C 
ATOM     19  C11 UNL     1      -3.085  -2.744  -8.187  0.00  0.00    +0.017 C 
ATOM     20  C12 UNL     1      -3.009  -1.525  -7.290  0.00  0.00    +0.081 C 
ATOM     21  N2  UNL     1      -2.001  -1.828  -6.280  0.00  0.00    -0.306 NA
ATOM     22  H14 UNL     1      -2.276  -1.486  -5.363  0.00  0.00    +0.123 HD
ENDBRANCH  14  17
ENDBRANCH   9  13
TORSDOF 2
ENDMDL
MODEL 4
REMARK VINA RESULT:      -7.1      2.204      2.907
REMARK  Name = Pro-AMC_min.pdb
REMARK  3 active torsions:
REMARK  status: ('A' for Active; 'I' for Inactive)
REMARK    1  A    between atoms: C1_1  and  C2_2
REMARK    2  A    between atoms: C7_9  and  N1_10
REMARK    3  A    between atoms: C8_11  and  C9_13
REMARK                            x       y       z     vdW  Elec       q    Type
REMARK                         _______ _______ _______ _____ _____    ______ ____
ROOT
ATOM      1  C1  UNL     1       6.351  -4.819 -10.036  0.00  0.00    +0.045 C 
ATOM      2  C2  UNL     1       5.683  -5.369  -8.812  0.00  0.00    -0.033 A 
ATOM      3  C3  UNL     1       6.359  -6.121  -7.932  0.00  0.00    +0.096 A 
ATOM      4  C4  UNL     1       5.761  -6.678  -6.706  0.00  0.00    +0.337 A 
ATOM      5  O1  UNL     1       6.423  -7.384  -5.954  0.00  0.00    -0.245 OA
ATOM      6  O2  UNL     1       4.439  -6.360  -6.462  0.00  0.00    -0.422 OA
ATOM      7  C5  UNL     1       3.704  -5.567  -7.364  0.00  0.00    +0.141 A 
ATOM      8  C6  UNL     1       2.379  -5.306  -7.009  0.00  0.00    +0.070 A 
ATOM      9  C7  UNL     1       1.568  -4.547  -7.853  0.00  0.00    +0.037 A 
ATOM     10  C13 UNL     1       2.093  -4.094  -9.066  0.00  0.00    +0.024 A 
ATOM     11  C14 UNL     1       3.438  -4.342  -9.398  0.00  0.00    +0.013 A 
ATOM     12  C15 UNL     1       4.265  -5.081  -8.544  0.00  0.00    +0.021 A 
ENDROOT
BRANCH   9  13
ATOM     13  N1  UNL     1       0.225  -4.253  -7.531  0.00  0.00    -0.284 N 
ATOM     14  C8  UNL     1      -0.160  -3.188  -6.724  0.00  0.00    +0.234 C 
ATOM     15  O3  UNL     1       0.587  -2.265  -6.406  0.00  0.00    -0.274 OA
ATOM     16  H6  UNL     1      -0.498  -4.734  -8.051  0.00  0.00    +0.155 HD
BRANCH  14  17
ATOM     17  C9  UNL     1      -1.645  -3.233  -6.296  0.00  0.00    +0.141 C 
ATOM     18  C10 UNL     1      -2.508  -3.912  -7.349  0.00  0.00    +0.029 C 
ATOM     19  C11 UNL     1      -3.078  -2.760  -8.154  0.00  0.00    +0.017 C 
ATOM     20  C12 UNL     1      -3.217  -1.645  -7.137  0.00  0.00    +0.081 C 
ATOM     21  N2  UNL     1      -2.159  -1.859  -6.155  0.00  0.00    -0.306 NA
ATOM     22  H14 UNL     1      -2.482  -1.667  -5.211  0.00  0.00    +0.123 HD
ENDBRANCH  14  17
ENDBRANCH   9  13
TORSDOF 2
ENDMDL
MODEL 5
REMARK VINA RESULT:      -7.1      5.926      9.910
REMARK  Name = Pro-AMC_min.pdb
REMARK  3 active torsions:
REMARK  status: ('A' for Active; 'I' for Inactive)
REMARK    1  A    between atoms: C1_1  and  C2_2
REMARK    2  A    between atoms: C7_9  and  N1_10
REMARK    3  A    between atoms: C8_11  and  C9_13
REMARK                            x       y       z     vdW  Elec       q    Type
REMARK                         _______ _______ _______ _____ _____    ______ ____
ROOT
ATOM      1  C1  UNL     1       5.994  -5.075  -8.507  0.00  0.00    +0.045 C 
ATOM      2  C2  UNL     1       5.443  -4.714  -9.854  0.00  0.00    -0.033 A 
ATOM      3  C3  UNL     1       4.122  -4.692 -10.078  0.00  0.00    +0.096 A 
ATOM      4  C4  UNL     1       3.521  -4.332 -11.374  0.00  0.00    +0.337 A 
ATOM      5  O1  UNL     1       2.305  -4.359 -11.527  0.00  0.00    -0.245 OA
ATOM      6  O2  UNL     1       4.393  -3.970 -12.382  0.00  0.00    -0.422 OA
ATOM      7  C5  UNL     1       5.786  -3.978 -12.176  0.00  0.00    +0.141 A 
ATOM      8  C6  UNL     1       6.567  -3.586 -13.264  0.00  0.00    +0.070 A 
ATOM      9  C7  UNL     1       7.959  -3.583 -13.158  0.00  0.00    +0.037 A 
ATOM     10  C13 UNL     1       8.545  -4.015 -11.966  0.00  0.00    +0.024 A 
ATOM     11  C14 UNL     1       7.744  -4.381 -10.868  0.00  0.00    +0.013 A 
ATOM     12  C15 UNL     1       6.347  -4.361 -10.959  0.00  0.00    +0.021 A 
ENDROOT
BRANCH   9  13
ATOM     13  N1  UNL     1       8.788  -3.189 -14.230  0.00  0.00    -0.284 N 
ATOM     14  C8  UNL     1       9.254  -1.891 -14.410  0.00  0.00    +0.234 C 
ATOM     15  O3  UNL     1       9.197  -1.018 -13.545  0.00  0.00    -0.274 OA
ATOM     16  H6  UNL     1       9.202  -3.919 -14.796  0.00  0.00    +0.155 HD
BRANCH  14  17
ATOM     17  C9  UNL     1       9.909  -1.646 -15.788  0.00  0.00    +0.141 C 
ATOM     18  C10 UNL     1       9.691  -0.218 -16.264  0.00  0.00    +0.029 C 
ATOM     19  C11 UNL     1       8.486  -0.318 -17.181  0.00  0.00    +0.017 C 
ATOM     20  C12 UNL     1       8.615  -1.699 -17.793  0.00  0.00    +0.081 C 
ATOM     21  N2  UNL     1       9.284  -2.524 -16.793  0.00  0.00    -0.306 NA
ATOM     22  H14 UNL     1       9.957  -3.155 -17.220  0.00  0.00    +0.123 HD
ENDBRANCH  14  17
ENDBRANCH   9  13
TORSDOF 2
ENDMDL
MODEL 6
REMARK VINA RESULT:      -7.0      2.535      4.273
REMARK  Name = Pro-AMC_min.pdb
REMARK  3 active torsions:
REMARK  status: ('A' for Active; 'I' for Inactive)
REMARK    1  A    between atoms: C1_1  and  C2_2
REMARK    2  A    between atoms: C7_9  and  N1_10
REMARK    3  A    between atoms: C8_11  and  C9_13
REMARK                            x       y       z     vdW  Elec       q    Type
REMARK                         _______ _______ _______ _____ _____    ______ ____
ROOT
ATOM      1  C1  UNL     1       6.586  -3.843 -14.329  0.00  0.00    +0.045 C 
ATOM      2  C2  UNL     1       6.935  -4.183 -12.911  0.00  0.00    -0.033 A 
ATOM      3  C3  UNL     1       8.211  -4.329 -12.528  0.00  0.00    +0.096 A 
ATOM      4  C4  UNL     1       8.617  -4.649 -11.149  0.00  0.00    +0.337 A 
ATOM      5  O1  UNL     1       9.799  -4.800 -10.865  0.00  0.00    -0.245 OA
ATOM      6  O2  UNL     1       7.604  -4.764 -10.216  0.00  0.00    -0.422 OA
ATOM      7  C5  UNL     1       6.254  -4.610 -10.586  0.00  0.00    +0.141 A 
ATOM      8  C6  UNL     1       5.319  -4.741  -9.558  0.00  0.00    +0.070 A 
ATOM      9  C7  UNL     1       3.957  -4.626  -9.836  0.00  0.00    +0.037 A 
ATOM     10  C13 UNL     1       3.553  -4.418 -11.157  0.00  0.00    +0.024 A 
ATOM     11  C14 UNL     1       4.508  -4.261 -12.179  0.00  0.00    +0.013 A 
ATOM     12  C15 UNL     1       5.877  -4.350 -11.903  0.00  0.00    +0.021 A 
ENDROOT
BRANCH   9  13
ATOM     13  N1  UNL     1       2.977  -4.744  -8.826  0.00  0.00    -0.284 N 
ATOM     14  C8  UNL     1       2.418  -3.659  -8.160  0.00  0.00    +0.234 C 
ATOM     15  O3  UNL     1       2.533  -2.493  -8.535  0.00  0.00    -0.274 OA
ATOM     16  H6  UNL     1       2.538  -5.648  -8.703  0.00  0.00    +0.155 HD
BRANCH  14  17
ATOM     17  C9  UNL     1       1.580  -4.049  -6.922  0.00  0.00    +0.141 C 
ATOM     18  C10 UNL     1       0.653  -5.217  -7.220  0.00  0.00    +0.029 C 
ATOM     19  C11 UNL     1      -0.673  -4.559  -7.547  0.00  0.00    +0.017 C 
ATOM     20  C12 UNL     1      -0.679  -3.314  -6.682  0.00  0.00    +0.081 C 
ATOM     21  N2  UNL     1       0.718  -2.918  -6.534  0.00  0.00    -0.306 NA
ATOM     22  H14 UNL     1       0.915  -2.592  -5.592  0.00  0.00    +0.123 HD
ENDBRANCH  14  17
ENDBRANCH   9  13
TORSDOF 2
ENDMDL
MODEL 7
REMARK VINA RESULT:      -6.9      3.082      4.468
REMARK  Name = Pro-AMC_min.pdb
REMARK  3 active torsions:
REMARK  status: ('A' for Active; 'I' for Inactive)
REMARK    1  A    between atoms: C1_1  and  C2_2
REMARK    2  A    between atoms: C7_9  and  N1_10
REMARK    3  A    between atoms: C8_11  and  C9_13
REMARK                            x       y       z     vdW  Elec       q    Type
REMARK                         _______ _______ _______ _____ _____    ______ ____
ROOT
ATOM      1  C1  UNL     1       5.638  -5.232 -14.690  0.00  0.00    +0.045 C 
ATOM      2  C2  UNL     1       4.226  -5.648 -14.403  0.00  0.00    -0.033 A 
ATOM      3  C3  UNL     1       3.481  -6.259 -15.335  0.00  0.00    +0.096 A 
ATOM      4  C4  UNL     1       2.096  -6.703 -15.109  0.00  0.00    +0.337 A 
ATOM      5  O1  UNL     1       1.454  -7.230 -16.010  0.00  0.00    -0.245 OA
ATOM      6  O2  UNL     1       1.577  -6.495 -13.846  0.00  0.00    -0.422 OA
ATOM      7  C5  UNL     1       2.336  -5.861 -12.843  0.00  0.00    +0.141 A 
ATOM      8  C6  UNL     1       1.710  -5.712 -11.605  0.00  0.00    +0.070 A 
ATOM      9  C7  UNL     1       2.379  -5.076 -10.558  0.00  0.00    +0.037 A 
ATOM     10  C13 UNL     1       3.658  -4.563 -10.787  0.00  0.00    +0.024 A 
ATOM     11  C14 UNL     1       4.287  -4.746 -12.033  0.00  0.00    +0.013 A 
ATOM     12  C15 UNL     1       3.632  -5.405 -13.080  0.00  0.00    +0.021 A 
ENDROOT
BRANCH   9  13
ATOM     13  N1  UNL     1       1.787  -4.908  -9.287  0.00  0.00    -0.284 N 
ATOM     14  C8  UNL     1       1.997  -3.798  -8.477  0.00  0.00    +0.234 C 
ATOM     15  O3  UNL     1       2.515  -2.753  -8.869  0.00  0.00    -0.274 OA
ATOM     16  H6  UNL     1       1.042  -5.544  -9.030  0.00  0.00    +0.155 HD
BRANCH  14  17
ATOM     17  C9  UNL     1       1.469  -3.967  -7.035  0.00  0.00    +0.141 C 
ATOM     18  C10 UNL     1       0.530  -5.159  -6.920  0.00  0.00    +0.029 C 
ATOM     19  C11 UNL     1      -0.853  -4.549  -7.044  0.00  0.00    +0.017 C 
ATOM     20  C12 UNL     1      -0.698  -3.178  -6.417  0.00  0.00    +0.081 C 
ATOM     21  N2  UNL     1       0.684  -2.778  -6.655  0.00  0.00    -0.306 NA
ATOM     22  H14 UNL     1       1.079  -2.302  -5.848  0.00  0.00    +0.123 HD
ENDBRANCH  14  17
ENDBRANCH   9  13
TORSDOF 2
ENDMDL
MODEL 8
REMARK VINA RESULT:      -6.9      5.871      9.999
REMARK  Name = Pro-AMC_min.pdb
REMARK  3 active torsions:
REMARK  status: ('A' for Active; 'I' for Inactive)
REMARK    1  A    between atoms: C1_1  and  C2_2
REMARK    2  A    between atoms: C7_9  and  N1_10
REMARK    3  A    between atoms: C8_11  and  C9_13
REMARK                            x       y       z     vdW  Elec       q    Type
REMARK                         _______ _______ _______ _____ _____    ______ ____
ROOT
ATOM      1  C1  UNL     1       1.964  -6.475 -13.450  0.00  0.00    +0.045 C 
ATOM      2  C2  UNL     1       2.796  -5.436 -12.760  0.00  0.00    -0.033 A 
ATOM      3  C3  UNL     1       2.398  -4.882 -11.607  0.00  0.00    +0.096 A 
ATOM      4  C4  UNL     1       3.177  -3.868 -10.877  0.00  0.00    +0.337 A 
ATOM      5  O1  UNL     1       2.745  -3.376  -9.840  0.00  0.00    -0.245 OA
ATOM      6  O2  UNL     1       4.397  -3.515 -11.420  0.00  0.00    -0.422 OA
ATOM      7  C5  UNL     1       4.846  -4.083 -12.628  0.00  0.00    +0.141 A 
ATOM      8  C6  UNL     1       6.097  -3.655 -13.076  0.00  0.00    +0.070 A 
ATOM      9  C7  UNL     1       6.614  -4.148 -14.275  0.00  0.00    +0.037 A 
ATOM     10  C13 UNL     1       5.843  -5.038 -15.026  0.00  0.00    +0.024 A 
ATOM     11  C14 UNL     1       4.595  -5.481 -14.549  0.00  0.00    +0.013 A 
ATOM     12  C15 UNL     1       4.082  -5.010 -13.334  0.00  0.00    +0.021 A 
ENDROOT
BRANCH   9  13
ATOM     13  N1  UNL     1       7.877  -3.748 -14.763  0.00  0.00    -0.284 N 
ATOM     14  C8  UNL     1       8.621  -2.706 -14.221  0.00  0.00    +0.234 C 
ATOM     15  O3  UNL     1       8.380  -2.187 -13.132  0.00  0.00    -0.274 OA
ATOM     16  H6  UNL     1       8.337  -4.359 -15.427  0.00  0.00    +0.155 HD
BRANCH  14  17
ATOM     17  C9  UNL     1       9.829  -2.283 -15.087  0.00  0.00    +0.141 C 
ATOM     18  C10 UNL     1       9.905  -0.772 -15.240  0.00  0.00    +0.029 C 
ATOM     19  C11 UNL     1       9.228  -0.504 -16.571  0.00  0.00    +0.017 C 
ATOM     20  C12 UNL     1       9.557  -1.733 -17.394  0.00  0.00    +0.081 C 
ATOM     21  N2  UNL     1       9.678  -2.835 -16.446  0.00  0.00    -0.306 NA
ATOM     22  H14 UNL     1      10.443  -3.457 -16.693  0.00  0.00    +0.123 HD
ENDBRANCH  14  17
ENDBRANCH   9  13
TORSDOF 2
ENDMDL
MODEL 9
REMARK VINA RESULT:      -6.9      4.385      7.913
REMARK  Name = Pro-AMC_min.pdb
REMARK  3 active torsions:
REMARK  status: ('A' for Active; 'I' for Inactive)
REMARK    1  A    between atoms: C1_1  and  C2_2
REMARK    2  A    between atoms: C7_9  and  N1_10
REMARK    3  A    between atoms: C8_11  and  C9_13
REMARK                            x       y       z     vdW  Elec       q    Type
REMARK                         _______ _______ _______ _____ _____    ______ ____
ROOT
ATOM      1  C1  UNL     1       0.939  -3.948  -6.815  0.00  0.00    +0.045 C 
ATOM      2  C2  UNL     1       2.081  -4.188  -7.756  0.00  0.00    -0.033 A 
ATOM      3  C3  UNL     1       2.135  -3.582  -8.950  0.00  0.00    +0.096 A 
ATOM      4  C4  UNL     1       3.236  -3.768  -9.911  0.00  0.00    +0.337 A 
ATOM      5  O1  UNL     1       3.215  -3.209 -11.001  0.00  0.00    -0.245 OA
ATOM      6  O2  UNL     1       4.272  -4.592  -9.513  0.00  0.00    -0.422 OA
ATOM      7  C5  UNL     1       4.247  -5.239  -8.263  0.00  0.00    +0.141 A 
ATOM      8  C6  UNL     1       5.351  -6.041  -7.968  0.00  0.00    +0.070 A 
ATOM      9  C7  UNL     1       5.403  -6.737  -6.760  0.00  0.00    +0.037 A 
ATOM     10  C13 UNL     1       4.321  -6.646  -5.881  0.00  0.00    +0.024 A 
ATOM     11  C14 UNL     1       3.227  -5.813  -6.180  0.00  0.00    +0.013 A 
ATOM     12  C15 UNL     1       3.180  -5.091  -7.379  0.00  0.00    +0.021 A 
ENDROOT
BRANCH   9  13
ATOM     13  N1  UNL     1       6.502  -7.554  -6.417  0.00  0.00    -0.284 N 
ATOM     14  C8  UNL     1       7.443  -7.218  -5.450  0.00  0.00    +0.234 C 
ATOM     15  O3  UNL     1       7.292  -6.308  -4.636  0.00  0.00    -0.274 OA
ATOM     16  H6  UNL     1       6.508  -8.503  -6.768  0.00  0.00    +0.155 HD
BRANCH  14  17
ATOM     17  C9  UNL     1       8.691  -8.130  -5.447  0.00  0.00    +0.141 C 
ATOM     18  C10 UNL     1       8.328  -9.572  -5.767  0.00  0.00    +0.029 C 
ATOM     19  C11 UNL     1       8.203 -10.230  -4.406  0.00  0.00    +0.017 C 
ATOM     20  C12 UNL     1       9.216  -9.490  -3.556  0.00  0.00    +0.081 C 
ATOM     21  N2  UNL     1       9.291  -8.139  -4.100  0.00  0.00    -0.306 NA
ATOM     22  H14 UNL     1      10.246  -7.792  -4.106  0.00  0.00    +0.123 HD
ENDBRANCH  14  17
ENDBRANCH   9  13
TORSDOF 2
ENDMDL
MODEL 10
REMARK VINA RESULT:      -6.8      1.871      2.813
REMARK  Name = Pro-AMC_min.pdb
REMARK  3 active torsions:
REMARK  status: ('A' for Active; 'I' for Inactive)
REMARK    1  A    between atoms: C1_1  and  C2_2
REMARK    2  A    between atoms: C7_9  and  N1_10
REMARK    3  A    between atoms: C8_11  and  C9_13
REMARK                            x       y       z     vdW  Elec       q    Type
REMARK                         _______ _______ _______ _____ _____    ______ ____
ROOT
ATOM      1  C1  UNL     1       5.498  -4.183 -12.819  0.00  0.00    +0.045 C 
ATOM      2  C2  UNL     1       5.602  -4.827 -11.469  0.00  0.00    -0.033 A 
ATOM      3  C3  UNL     1       6.633  -5.625 -11.160  0.00  0.00    +0.096 A 
ATOM      4  C4  UNL     1       6.798  -6.274  -9.848  0.00  0.00    +0.337 A 
ATOM      5  O1  UNL     1       7.747  -7.018  -9.635  0.00  0.00    -0.245 OA
ATOM      6  O2  UNL     1       5.837  -5.997  -8.895  0.00  0.00    -0.422 OA
ATOM      7  C5  UNL     1       4.744  -5.158  -9.188  0.00  0.00    +0.141 A 
ATOM      8  C6  UNL     1       3.841  -4.944  -8.145  0.00  0.00    +0.070 A 
ATOM      9  C7  UNL     1       2.717  -4.144  -8.350  0.00  0.00    +0.037 A 
ATOM     10  C13 UNL     1       2.498  -3.600  -9.617  0.00  0.00    +0.024 A 
ATOM     11  C14 UNL     1       3.431  -3.801 -10.651  0.00  0.00    +0.013 A 
ATOM     12  C15 UNL     1       4.574  -4.582 -10.446  0.00  0.00    +0.021 A 
ENDROOT
BRANCH   9  13
ATOM     13  N1  UNL     1       1.781  -3.895  -7.322  0.00  0.00    -0.284 N 
ATOM     14  C8  UNL     1       0.587  -4.594  -7.178  0.00  0.00    +0.234 C 
ATOM     15  O3  UNL     1       0.333  -5.643  -7.769  0.00  0.00    -0.274 OA
ATOM     16  H6  UNL     1       2.072  -3.300  -6.557  0.00  0.00    +0.155 HD
BRANCH  14  17
ATOM     17  C9  UNL     1      -0.387  -3.965  -6.156  0.00  0.00    +0.141 C 
ATOM     18  C10 UNL     1      -1.607  -4.845  -5.933  0.00  0.00    +0.029 C 
ATOM     19  C11 UNL     1      -2.657  -4.257  -6.857  0.00  0.00    +0.017 C 
ATOM     20  C12 UNL     1      -2.328  -2.778  -6.877  0.00  0.00    +0.081 C 
ATOM     21  N2  UNL     1      -0.886  -2.680  -6.679  0.00  0.00    -0.306 NA
ATOM     22  H14 UNL     1      -0.645  -1.902  -6.072  0.00  0.00    +0.123 HD
ENDBRANCH  14  17
ENDBRANCH   9  13
TORSDOF 2
ENDMDL
MODEL 11
REMARK VINA RESULT:      -6.7      3.780      6.358
REMARK  Name = Pro-AMC_min.pdb
REMARK  3 active torsions:
REMARK  status: ('A' for Active; 'I' for Inactive)
REMARK    1  A    between atoms: C1_1  and  C2_2
REMARK    2  A    between atoms: C7_9  and  N1_10
REMARK    3  A    between atoms: C8_11  and  C9_13
REMARK                            x       y       z     vdW  Elec       q    Type
REMARK                         _______ _______ _______ _____ _____    ______ ____
ROOT
ATOM      1  C1  UNL     1       6.765  -4.150 -16.903  0.00  0.00    +0.045 C 
ATOM      2  C2  UNL     1       7.231  -3.667 -15.563  0.00  0.00    -0.033 A 
ATOM      3  C3  UNL     1       8.290  -2.854 -15.449  0.00  0.00    +0.096 A 
ATOM      4  C4  UNL     1       8.787  -2.336 -14.163  0.00  0.00    +0.337 A 
ATOM      5  O1  UNL     1       9.779  -1.618 -14.121  0.00  0.00    -0.245 OA
ATOM      6  O2  UNL     1       8.079  -2.700 -13.034  0.00  0.00    -0.422 OA
ATOM      7  C5  UNL     1       6.959  -3.549 -13.121  0.00  0.00    +0.141 A 
ATOM      8  C6  UNL     1       6.320  -3.843 -11.915  0.00  0.00    +0.070 A 
ATOM      9  C7  UNL     1       5.214  -4.694 -11.902  0.00  0.00    +0.037 A 
ATOM     10  C13 UNL     1       4.791  -5.269 -13.102  0.00  0.00    +0.024 A 
ATOM     11  C14 UNL     1       5.428  -4.942 -14.314  0.00  0.00    +0.013 A 
ATOM     12  C15 UNL     1       6.522  -4.069 -14.338  0.00  0.00    +0.021 A 
ENDROOT
BRANCH   9  13
ATOM     13  N1  UNL     1       4.533  -5.013 -10.707  0.00  0.00    -0.284 N 
ATOM     14  C8  UNL     1       3.570  -4.196 -10.124  0.00  0.00    +0.234 C 
ATOM     15  O3  UNL     1       3.043  -3.244 -10.697  0.00  0.00    -0.274 OA
ATOM     16  H6  UNL     1       4.625  -5.957 -10.353  0.00  0.00    +0.155 HD
BRANCH  14  17
ATOM     17  C9  UNL     1       3.170  -4.624  -8.694  0.00  0.00    +0.141 C 
ATOM     18  C10 UNL     1       3.391  -6.112  -8.474  0.00  0.00    +0.029 C 
ATOM     19  C11 UNL     1       2.026  -6.726  -8.724  0.00  0.00    +0.017 C 
ATOM     20  C12 UNL     1       1.060  -5.653  -8.261  0.00  0.00    +0.081 C 
ATOM     21  N2  UNL     1       1.731  -4.378  -8.491  0.00  0.00    -0.306 NA
ATOM     22  H14 UNL     1       1.559  -3.724  -7.732  0.00  0.00    +0.123 HD
ENDBRANCH  14  17
ENDBRANCH   9  13
TORSDOF 2
ENDMDL
MODEL 12
REMARK VINA RESULT:      -6.7      3.198      5.461
REMARK  Name = Pro-AMC_min.pdb
REMARK  3 active torsions:
REMARK  status: ('A' for Active; 'I' for Inactive)
REMARK    1  A    between atoms: C1_1  and  C2_2
REMARK    2  A    between atoms: C7_9  and  N1_10
REMARK    3  A    between atoms: C8_11  and  C9_13
REMARK                            x       y       z     vdW  Elec       q    Type
REMARK                         _______ _______ _______ _____ _____    ______ ____
ROOT
ATOM      1  C1  UNL     1       6.237  -4.561 -16.138  0.00  0.00    +0.045 C 
ATOM      2  C2  UNL     1       6.828  -4.176 -14.815  0.00  0.00    -0.033 A 
ATOM      3  C3  UNL     1       8.018  -3.565 -14.739  0.00  0.00    +0.096 A 
ATOM      4  C4  UNL     1       8.643  -3.150 -13.472  0.00  0.00    +0.337 A 
ATOM      5  O1  UNL     1       9.748  -2.622 -13.464  0.00  0.00    -0.245 OA
ATOM      6  O2  UNL     1       7.920  -3.389 -12.318  0.00  0.00    -0.422 OA
ATOM      7  C5  UNL     1       6.665  -4.024 -12.365  0.00  0.00    +0.141 A 
ATOM      8  C6  UNL     1       6.025  -4.205 -11.138  0.00  0.00    +0.070 A 
ATOM      9  C7  UNL     1       4.786  -4.845 -11.086  0.00  0.00    +0.037 A 
ATOM     10  C13 UNL     1       4.226  -5.329 -12.270  0.00  0.00    +0.024 A 
ATOM     11  C14 UNL     1       4.870  -5.115 -13.503  0.00  0.00    +0.013 A 
ATOM     12  C15 UNL     1       6.101  -4.451 -13.566  0.00  0.00    +0.021 A 
ENDROOT
BRANCH   9  13
ATOM     13  N1  UNL     1       4.100  -5.043  -9.868  0.00  0.00    -0.284 N 
ATOM     14  C8  UNL     1       3.220  -4.118  -9.317  0.00  0.00    +0.234 C 
ATOM     15  O3  UNL     1       2.767  -3.154  -9.932  0.00  0.00    -0.274 OA
ATOM     16  H6  UNL     1       4.117  -5.972  -9.466  0.00  0.00    +0.155 HD
BRANCH  14  17
ATOM     17  C9  UNL     1       2.809  -4.436  -7.861  0.00  0.00    +0.141 C 
ATOM     18  C10 UNL     1       2.080  -5.768  -7.765  0.00  0.00    +0.029 C 
ATOM     19  C11 UNL     1       0.613  -5.385  -7.787  0.00  0.00    +0.017 C 
ATOM     20  C12 UNL     1       0.583  -4.036  -7.095  0.00  0.00    +0.081 C 
ATOM     21  N2  UNL     1       1.869  -3.408  -7.379  0.00  0.00    -0.306 NA
ATOM     22  H14 UNL     1       2.229  -2.912  -6.568  0.00  0.00    +0.123 HD
ENDBRANCH  14  17
ENDBRANCH   9  13
TORSDOF 2
ENDMDL
MODEL 13
REMARK VINA RESULT:      -6.7      5.192      9.200
REMARK  Name = Pro-AMC_min.pdb
REMARK  3 active torsions:
REMARK  status: ('A' for Active; 'I' for Inactive)
REMARK    1  A    between atoms: C1_1  and  C2_2
REMARK    2  A    between atoms: C7_9  and  N1_10
REMARK    3  A    between atoms: C8_11  and  C9_13
REMARK                            x       y       z     vdW  Elec       q    Type
REMARK                         _______ _______ _______ _____ _____    ______ ____
ROOT
ATOM      1  C1  UNL     1       2.579  -5.272  -8.833  0.00  0.00    +0.045 C 
ATOM      2  C2  UNL     1       4.043  -4.991  -8.990  0.00  0.00    -0.033 A 
ATOM      3  C3  UNL     1       4.861  -4.967  -7.928  0.00  0.00    +0.096 A 
ATOM      4  C4  UNL     1       6.308  -4.711  -8.019  0.00  0.00    +0.337 A 
ATOM      5  O1  UNL     1       7.000  -4.672  -7.009  0.00  0.00    -0.245 OA
ATOM      6  O2  UNL     1       6.825  -4.523  -9.287  0.00  0.00    -0.422 OA
ATOM      7  C5  UNL     1       5.993  -4.548 -10.422  0.00  0.00    +0.141 A 
ATOM      8  C6  UNL     1       6.627  -4.352 -11.650  0.00  0.00    +0.070 A 
ATOM      9  C7  UNL     1       5.879  -4.340 -12.827  0.00  0.00    +0.037 A 
ATOM     10  C13 UNL     1       4.492  -4.486 -12.747  0.00  0.00    +0.024 A 
ATOM     11  C14 UNL     1       3.869  -4.709 -11.505  0.00  0.00    +0.013 A 
ATOM     12  C15 UNL     1       4.617  -4.748 -10.322  0.00  0.00    +0.021 A 
ENDROOT
BRANCH   9  13
ATOM     13  N1  UNL     1       6.479  -4.152 -14.091  0.00  0.00    -0.284 N 
ATOM     14  C8  UNL     1       7.345  -3.105 -14.389  0.00  0.00    +0.234 C 
ATOM     15  O3  UNL     1       7.862  -2.383 -13.538  0.00  0.00    -0.274 OA
ATOM     16  H6  UNL     1       6.412  -4.910 -14.759  0.00  0.00    +0.155 HD
BRANCH  14  17
ATOM     17  C9  UNL     1       7.652  -2.956 -15.896  0.00  0.00    +0.141 C 
ATOM     18  C10 UNL     1       9.096  -3.318 -16.209  0.00  0.00    +0.029 C 
ATOM     19  C11 UNL     1       9.813  -1.981 -16.229  0.00  0.00    +0.017 C 
ATOM     20  C12 UNL     1       8.760  -1.018 -16.741  0.00  0.00    +0.081 C 
ATOM     21  N2  UNL     1       7.476  -1.549 -16.298  0.00  0.00    -0.306 NA
ATOM     22  H14 UNL     1       6.762  -1.443 -17.013  0.00  0.00    +0.123 HD
ENDBRANCH  14  17
ENDBRANCH   9  13
TORSDOF 2
ENDMDL
MODEL 14
REMARK VINA RESULT:      -6.6      5.115      9.149
REMARK  Name = Pro-AMC_min.pdb
REMARK  3 active torsions:
REMARK  status: ('A' for Active; 'I' for Inactive)
REMARK    1  A    between atoms: C1_1  and  C2_2
REMARK    2  A    between atoms: C7_9  and  N1_10
REMARK    3  A    between atoms: C8_11  and  C9_13
REMARK                            x       y       z     vdW  Elec       q    Type
REMARK                         _______ _______ _______ _____ _____    ______ ____
ROOT
ATOM      1  C1  UNL     1       4.703  -6.946  -8.768  0.00  0.00    +0.045 C 
ATOM      2  C2  UNL     1       4.263  -5.699  -9.474  0.00  0.00    -0.033 A 
ATOM      3  C3  UNL     1       3.432  -4.827  -8.886  0.00  0.00    +0.096 A 
ATOM      4  C4  UNL     1       2.976  -3.579  -9.523  0.00  0.00    +0.337 A 
ATOM      5  O1  UNL     1       2.191  -2.835  -8.947  0.00  0.00    -0.245 OA
ATOM      6  O2  UNL     1       3.478  -3.307 -10.781  0.00  0.00    -0.422 OA
ATOM      7  C5  UNL     1       4.357  -4.201 -11.422  0.00  0.00    +0.141 A 
ATOM      8  C6  UNL     1       4.803  -3.816 -12.688  0.00  0.00    +0.070 A 
ATOM      9  C7  UNL     1       5.660  -4.650 -13.407  0.00  0.00    +0.037 A 
ATOM     10  C13 UNL     1       6.025  -5.880 -12.856  0.00  0.00    +0.024 A 
ATOM     11  C14 UNL     1       5.588  -6.243 -11.568  0.00  0.00    +0.013 A 
ATOM     12  C15 UNL     1       4.749  -5.400 -10.829  0.00  0.00    +0.021 A 
ENDROOT
BRANCH   9  13
ATOM     13  N1  UNL     1       6.142  -4.299 -14.687  0.00  0.00    -0.284 N 
ATOM     14  C8  UNL     1       7.086  -3.303 -14.911  0.00  0.00    +0.234 C 
ATOM     15  O3  UNL     1       7.769  -2.795 -14.022  0.00  0.00    -0.274 OA
ATOM     16  H6  UNL     1       5.919  -4.916 -15.457  0.00  0.00    +0.155 HD
BRANCH  14  17
ATOM     17  C9  UNL     1       7.249  -2.918 -16.399  0.00  0.00    +0.141 C 
ATOM     18  C10 UNL     1       8.573  -3.414 -16.962  0.00  0.00    +0.029 C 
ATOM     19  C11 UNL     1       9.491  -2.211 -16.853  0.00  0.00    +0.017 C 
ATOM     20  C12 UNL     1       8.560  -1.031 -17.046  0.00  0.00    +0.081 C 
ATOM     21  N2  UNL     1       7.262  -1.450 -16.530  0.00  0.00    -0.306 NA
ATOM     22  H14 UNL     1       6.501  -1.112 -17.113  0.00  0.00    +0.123 HD
ENDBRANCH  14  17
ENDBRANCH   9  13
TORSDOF 2
ENDMDL
MODEL 15
REMARK VINA RESULT:      -6.6      6.095      9.837
REMARK  Name = Pro-AMC_min.pdb
REMARK  3 active torsions:
REMARK  status: ('A' for Active; 'I' for Inactive)
REMARK    1  A    between atoms: C1_1  and  C2_2
REMARK    2  A    between atoms: C7_9  and  N1_10
REMARK    3  A    between atoms: C8_11  and  C9_13
REMARK                            x       y       z     vdW  Elec       q    Type
REMARK                         _______ _______ _______ _____ _____    ______ ____
ROOT
ATOM      1  C1  UNL     1       1.710  -5.836 -11.228  0.00  0.00    +0.045 C 
ATOM      2  C2  UNL     1       2.299  -5.949 -12.602  0.00  0.00    -0.033 A 
ATOM      3  C3  UNL     1       1.607  -6.499 -13.609  0.00  0.00    +0.096 A 
ATOM      4  C4  UNL     1       2.126  -6.626 -14.982  0.00  0.00    +0.337 A 
ATOM      5  O1  UNL     1       1.457  -7.166 -15.855  0.00  0.00    -0.245 OA
ATOM      6  O2  UNL     1       3.385  -6.109 -15.218  0.00  0.00    -0.422 OA
ATOM      7  C5  UNL     1       4.135  -5.520 -14.182  0.00  0.00    +0.141 A 
ATOM      8  C6  UNL     1       5.390  -5.026 -14.541  0.00  0.00    +0.070 A 
ATOM      9  C7  UNL     1       6.212  -4.444 -13.575  0.00  0.00    +0.037 A 
ATOM     10  C13 UNL     1       5.772  -4.404 -12.250  0.00  0.00    +0.024 A 
ATOM     11  C14 UNL     1       4.493  -4.882 -11.908  0.00  0.00    +0.013 A 
ATOM     12  C15 UNL     1       3.653  -5.443 -12.877  0.00  0.00    +0.021 A 
ENDROOT
BRANCH   9  13
ATOM     13  N1  UNL     1       7.486  -3.925 -13.894  0.00  0.00    -0.284 N 
ATOM     14  C8  UNL     1       7.710  -2.988 -14.896  0.00  0.00    +0.234 C 
ATOM     15  O3  UNL     1       6.816  -2.341 -15.440  0.00  0.00    -0.274 OA
ATOM     16  H6  UNL     1       8.244  -4.115 -13.250  0.00  0.00    +0.155 HD
BRANCH  14  17
ATOM     17  C9  UNL     1       9.203  -2.782 -15.237  0.00  0.00    +0.141 C 
ATOM     18  C10 UNL     1       9.904  -1.933 -14.187  0.00  0.00    +0.029 C 
ATOM     19  C11 UNL     1       9.878  -0.533 -14.770  0.00  0.00    +0.017 C 
ATOM     20  C12 UNL     1       9.964  -0.766 -16.266  0.00  0.00    +0.081 C 
ATOM     21  N2  UNL     1       9.321  -2.052 -16.513  0.00  0.00    -0.306 NA
ATOM     22  H14 UNL     1       9.820  -2.590 -17.216  0.00  0.00    +0.123 HD
ENDBRANCH  14  17
ENDBRANCH   9  13
TORSDOF 2
ENDMDL
MODEL 16
REMARK VINA RESULT:      -6.5      4.390      8.362
REMARK  Name = Pro-AMC_min.pdb
REMARK  3 active torsions:
REMARK  status: ('A' for Active; 'I' for Inactive)
REMARK    1  A    between atoms: C1_1  and  C2_2
REMARK    2  A    between atoms: C7_9  and  N1_10
REMARK    3  A    between atoms: C8_11  and  C9_13
REMARK                            x       y       z     vdW  Elec       q    Type
REMARK                         _______ _______ _______ _____ _____    ______ ____
ROOT
ATOM      1  C1  UNL     1       2.088  -7.427  -8.347  0.00  0.00    +0.045 C 
ATOM      2  C2  UNL     1       2.306  -5.992  -8.724  0.00  0.00    -0.033 A 
ATOM      3  C3  UNL     1       1.888  -4.996  -7.931  0.00  0.00    +0.096 A 
ATOM      4  C4  UNL     1       2.085  -3.570  -8.240  0.00  0.00    +0.337 A 
ATOM      5  O1  UNL     1       1.653  -2.702  -7.490  0.00  0.00    -0.245 OA
ATOM      6  O2  UNL     1       2.774  -3.277  -9.402  0.00  0.00    -0.422 OA
ATOM      7  C5  UNL     1       3.232  -4.302 -10.253  0.00  0.00    +0.141 A 
ATOM      8  C6  UNL     1       3.921  -3.887 -11.393  0.00  0.00    +0.070 A 
ATOM      9  C7  UNL     1       4.393  -4.832 -12.305  0.00  0.00    +0.037 A 
ATOM     10  C13 UNL     1       4.128  -6.184 -12.073  0.00  0.00    +0.024 A 
ATOM     11  C14 UNL     1       3.456  -6.589 -10.905  0.00  0.00    +0.013 A 
ATOM     12  C15 UNL     1       3.002  -5.648  -9.973  0.00  0.00    +0.021 A 
ENDROOT
BRANCH   9  13
ATOM     13  N1  UNL     1       5.100  -4.458 -13.468  0.00  0.00    -0.284 N 
ATOM     14  C8  UNL     1       6.370  -3.890 -13.452  0.00  0.00    +0.234 C 
ATOM     15  O3  UNL     1       7.099  -3.874 -12.461  0.00  0.00    -0.274 OA
ATOM     16  H6  UNL     1       4.740  -4.777 -14.359  0.00  0.00    +0.155 HD
BRANCH  14  17
ATOM     17  C9  UNL     1       6.818  -3.321 -14.817  0.00  0.00    +0.141 C 
ATOM     18  C10 UNL     1       7.140  -4.431 -15.806  0.00  0.00    +0.029 C 
ATOM     19  C11 UNL     1       8.645  -4.586 -15.705  0.00  0.00    +0.017 C 
ATOM     20  C12 UNL     1       9.130  -3.183 -15.394  0.00  0.00    +0.081 C 
ATOM     21  N2  UNL     1       8.057  -2.542 -14.643  0.00  0.00    -0.306 NA
ATOM     22  H14 UNL     1       7.939  -1.570 -14.917  0.00  0.00    +0.123 HD
ENDBRANCH  14  17
ENDBRANCH   9  13
TORSDOF 2
ENDMDL
MODEL 17
REMARK VINA RESULT:      -6.5      6.001      9.922
REMARK  Name = Pro-AMC_min.pdb
REMARK  3 active torsions:
REMARK  status: ('A' for Active; 'I' for Inactive)
REMARK    1  A    between atoms: C1_1  and  C2_2
REMARK    2  A    between atoms: C7_9  and  N1_10
REMARK    3  A    between atoms: C8_11  and  C9_13
REMARK                            x       y       z     vdW  Elec       q    Type
REMARK                         _______ _______ _______ _____ _____    ______ ____
ROOT
ATOM      1  C1  UNL     1       2.599  -4.804 -10.234  0.00  0.00    +0.045 C 
ATOM      2  C2  UNL     1       2.554  -5.335 -11.635  0.00  0.00    -0.033 A 
ATOM      3  C3  UNL     1       1.482  -5.997 -12.091  0.00  0.00    +0.096 A 
ATOM      4  C4  UNL     1       1.373  -6.530 -13.459  0.00  0.00    +0.337 A 
ATOM      5  O1  UNL     1       0.378  -7.154 -13.809  0.00  0.00    -0.245 OA
ATOM      6  O2  UNL     1       2.438  -6.286 -14.305  0.00  0.00    -0.422 OA
ATOM      7  C5  UNL     1       3.576  -5.589 -13.858  0.00  0.00    +0.141 A 
ATOM      8  C6  UNL     1       4.585  -5.396 -14.803  0.00  0.00    +0.070 A 
ATOM      9  C7  UNL     1       5.759  -4.734 -14.444  0.00  0.00    +0.037 A 
ATOM     10  C13 UNL     1       5.916  -4.307 -13.123  0.00  0.00    +0.024 A 
ATOM     11  C14 UNL     1       4.879  -4.484 -12.188  0.00  0.00    +0.013 A 
ATOM     12  C15 UNL     1       3.688  -5.125 -12.548  0.00  0.00    +0.021 A 
ENDROOT
BRANCH   9  13
ATOM     13  N1  UNL     1       6.803  -4.511 -15.368  0.00  0.00    -0.284 N 
ATOM     14  C8  UNL     1       7.608  -3.377 -15.366  0.00  0.00    +0.234 C 
ATOM     15  O3  UNL     1       7.659  -2.575 -14.435  0.00  0.00    -0.274 OA
ATOM     16  H6  UNL     1       7.089  -5.289 -15.949  0.00  0.00    +0.155 HD
BRANCH  14  17
ATOM     17  C9  UNL     1       8.489  -3.233 -16.628  0.00  0.00    +0.141 C 
ATOM     18  C10 UNL     1       9.667  -2.302 -16.383  0.00  0.00    +0.029 C 
ATOM     19  C11 UNL     1       9.193  -0.964 -16.918  0.00  0.00    +0.017 C 
ATOM     20  C12 UNL     1       8.279  -1.340 -18.068  0.00  0.00    +0.081 C 
ATOM     21  N2  UNL     1       7.698  -2.631 -17.716  0.00  0.00    -0.306 NA
ATOM     22  H14 UNL     1       7.633  -3.244 -18.524  0.00  0.00    +0.123 HD
ENDBRANCH  14  17
ENDBRANCH   9  13
TORSDOF 2
ENDMDL
MODEL 18
REMARK VINA RESULT:      -6.5      5.785      9.941
REMARK  Name = Pro-AMC_min.pdb
REMARK  3 active torsions:
REMARK  status: ('A' for Active; 'I' for Inactive)
REMARK    1  A    between atoms: C1_1  and  C2_2
REMARK    2  A    between atoms: C7_9  and  N1_10
REMARK    3  A    between atoms: C8_11  and  C9_13
REMARK                            x       y       z     vdW  Elec       q    Type
REMARK                         _______ _______ _______ _____ _____    ______ ____
ROOT
ATOM      1  C1  UNL     1       1.351  -6.523 -12.674  0.00  0.00    +0.045 C 
ATOM      2  C2  UNL     1       2.284  -5.493 -12.112  0.00  0.00    -0.033 A 
ATOM      3  C3  UNL     1       1.980  -4.818 -10.995  0.00  0.00    +0.096 A 
ATOM      4  C4  UNL     1       2.861  -3.806 -10.388  0.00  0.00    +0.337 A 
ATOM      5  O1  UNL     1       2.514  -3.200  -9.381  0.00  0.00    -0.245 OA
ATOM      6  O2  UNL     1       4.075  -3.589 -11.010  0.00  0.00    -0.422 OA
ATOM      7  C5  UNL     1       4.427  -4.286 -12.181  0.00  0.00    +0.141 A 
ATOM      8  C6  UNL     1       5.682  -3.990 -12.716  0.00  0.00    +0.070 A 
ATOM      9  C7  UNL     1       6.105  -4.617 -13.889  0.00  0.00    +0.037 A 
ATOM     10  C13 UNL     1       5.240  -5.507 -14.528  0.00  0.00    +0.024 A 
ATOM     11  C14 UNL     1       3.989  -5.817 -13.963  0.00  0.00    +0.013 A 
ATOM     12  C15 UNL     1       3.568  -5.211 -12.773  0.00  0.00    +0.021 A 
ENDROOT
BRANCH   9  13
ATOM     13  N1  UNL     1       7.368  -4.352 -14.461  0.00  0.00    -0.284 N 
ATOM     14  C8  UNL     1       7.592  -3.370 -15.420  0.00  0.00    +0.234 C 
ATOM     15  O3  UNL     1       6.785  -2.482 -15.691  0.00  0.00    -0.274 OA
ATOM     16  H6  UNL     1       8.177  -4.780 -14.030  0.00  0.00    +0.155 HD
BRANCH  14  17
ATOM     17  C9  UNL     1       8.983  -3.454 -16.088  0.00  0.00    +0.141 C 
ATOM     18  C10 UNL     1       9.965  -2.478 -15.457  0.00  0.00    +0.029 C 
ATOM     19  C11 UNL     1       9.921  -1.270 -16.373  0.00  0.00    +0.017 C 
ATOM     20  C12 UNL     1       9.652  -1.866 -17.741  0.00  0.00    +0.081 C 
ATOM     21  N2  UNL     1       8.871  -3.076 -17.509  0.00  0.00    -0.306 NA
ATOM     22  H14 UNL     1       9.157  -3.829 -18.128  0.00  0.00    +0.123 HD
ENDBRANCH  14  17
ENDBRANCH   9  13
TORSDOF 2
ENDMDL
MODEL 19
REMARK VINA RESULT:      -6.5      5.764      9.747
REMARK  Name = Pro-AMC_min.pdb
REMARK  3 active torsions:
REMARK  status: ('A' for Active; 'I' for Inactive)
REMARK    1  A    between atoms: C1_1  and  C2_2
REMARK    2  A    between atoms: C7_9  and  N1_10
REMARK    3  A    between atoms: C8_11  and  C9_13
REMARK                            x       y       z     vdW  Elec       q    Type
REMARK                         _______ _______ _______ _____ _____    ______ ____
ROOT
ATOM      1  C1  UNL     1       6.225  -6.766  -9.395  0.00  0.00    +0.045 C 
ATOM      2  C2  UNL     1       5.535  -5.681 -10.165  0.00  0.00    -0.033 A 
ATOM      3  C3  UNL     1       4.325  -5.234  -9.801  0.00  0.00    +0.096 A 
ATOM      4  C4  UNL     1       3.604  -4.162 -10.509  0.00  0.00    +0.337 A 
ATOM      5  O1  UNL     1       2.486  -3.816 -10.145  0.00  0.00    -0.245 OA
ATOM      6  O2  UNL     1       4.253  -3.584 -11.583  0.00  0.00    -0.422 OA
ATOM      7  C5  UNL     1       5.526  -4.028 -11.987  0.00  0.00    +0.141 A 
ATOM      8  C6  UNL     1       6.086  -3.364 -13.080  0.00  0.00    +0.070 A 
ATOM      9  C7  UNL     1       7.336  -3.751 -13.564  0.00  0.00    +0.037 A 
ATOM     10  C13 UNL     1       7.989  -4.829 -12.963  0.00  0.00    +0.024 A 
ATOM     11  C14 UNL     1       7.425  -5.471 -11.844  0.00  0.00    +0.013 A 
ATOM     12  C15 UNL     1       6.183  -5.072 -11.337  0.00  0.00    +0.021 A 
ENDROOT
BRANCH   9  13
ATOM     13  N1  UNL     1       7.943  -3.104 -14.663  0.00  0.00    -0.284 N 
ATOM     14  C8  UNL     1       7.601  -3.347 -15.989  0.00  0.00    +0.234 C 
ATOM     15  O3  UNL     1       6.590  -3.956 -16.334  0.00  0.00    -0.274 OA
ATOM     16  H6  UNL     1       8.532  -2.304 -14.468  0.00  0.00    +0.155 HD
BRANCH  14  17
ATOM     17  C9  UNL     1       8.582  -2.730 -17.011  0.00  0.00    +0.141 C 
ATOM     18  C10 UNL     1       9.507  -1.715 -16.355  0.00  0.00    +0.029 C 
ATOM     19  C11 UNL     1       8.840  -0.381 -16.629  0.00  0.00    +0.017 C 
ATOM     20  C12 UNL     1       8.170  -0.584 -17.974  0.00  0.00    +0.081 C 
ATOM     21  N2  UNL     1       7.824  -2.000 -18.043  0.00  0.00    -0.306 NA
ATOM     22  H14 UNL     1       7.984  -2.378 -18.973  0.00  0.00    +0.123 HD
ENDBRANCH  14  17
ENDBRANCH   9  13
TORSDOF 2
ENDMDL
MODEL 20
REMARK VINA RESULT:      -6.5      6.494      7.588
REMARK  Name = Pro-AMC_min.pdb
REMARK  3 active torsions:
REMARK  status: ('A' for Active; 'I' for Inactive)
REMARK    1  A    between atoms: C1_1  and  C2_2
REMARK    2  A    between atoms: C7_9  and  N1_10
REMARK    3  A    between atoms: C8_11  and  C9_13
REMARK                            x       y       z     vdW  Elec       q    Type
REMARK                         _______ _______ _______ _____ _____    ______ ____
ROOT
ATOM      1  C1  UNL     1       9.965  -4.189 -10.892  0.00  0.00    +0.045 C 
ATOM      2  C2  UNL     1       9.223  -3.588 -12.047  0.00  0.00    -0.033 A 
ATOM      3  C3  UNL     1       9.798  -2.673 -12.839  0.00  0.00    +0.096 A 
ATOM      4  C4  UNL     1       9.126  -2.056 -13.995  0.00  0.00    +0.337 A 
ATOM      5  O1  UNL     1       9.694  -1.202 -14.666  0.00  0.00    -0.245 OA
ATOM      6  O2  UNL     1       7.844  -2.493 -14.272  0.00  0.00    -0.422 OA
ATOM      7  C5  UNL     1       7.215  -3.457 -13.462  0.00  0.00    +0.141 A 
ATOM      8  C6  UNL     1       5.923  -3.825 -13.842  0.00  0.00    +0.070 A 
ATOM      9  C7  UNL     1       5.213  -4.759 -13.085  0.00  0.00    +0.037 A 
ATOM     10  C13 UNL     1       5.803  -5.280 -11.931  0.00  0.00    +0.024 A 
ATOM     11  C14 UNL     1       7.116  -4.919 -11.575  0.00  0.00    +0.013 A 
ATOM     12  C15 UNL     1       7.843  -4.003 -12.344  0.00  0.00    +0.021 A 
ENDROOT
BRANCH   9  13
ATOM     13  N1  UNL     1       3.908  -5.166 -13.436  0.00  0.00    -0.284 N 
ATOM     14  C8  UNL     1       3.622  -6.013 -14.501  0.00  0.00    +0.234 C 
ATOM     15  O3  UNL     1       4.471  -6.680 -15.092  0.00  0.00    -0.274 OA
ATOM     16  H6  UNL     1       3.163  -4.970 -12.779  0.00  0.00    +0.155 HD
BRANCH  14  17
ATOM     17  C9  UNL     1       2.119  -6.093 -14.852  0.00  0.00    +0.141 C 
ATOM     18  C10 UNL     1       1.247  -5.803 -13.640  0.00  0.00    +0.029 C 
ATOM     19  C11 UNL     1       0.896  -7.178 -13.104  0.00  0.00    +0.017 C 
ATOM     20  C12 UNL     1       0.839  -8.044 -14.348  0.00  0.00    +0.081 C 
ATOM     21  N2  UNL     1       1.787  -7.461 -15.290  0.00  0.00    -0.306 NA
ATOM     22  H14 UNL     1       1.428  -7.480 -16.241  0.00  0.00    +0.123 HD
ENDBRANCH  14  17
ENDBRANCH   9  13
TORSDOF 2
ENDMDL
